* NGSPICE file created from gf180mcu_fd_io__asig_5p0.ext - technology: gf180mcuB

.subckt comp018green_esd_hbm w_n51_7356# a_1131_1121# pn_6p0_CDNS_4066195472952_3/VSUBS
D0 a_1131_1121# w_n51_7356# pn_6p0 pj=106u area=150p
D1 pn_6p0_CDNS_4066195472952_3/VSUBS a_1131_1121# np_6p0 pj=106u area=150p
D2 pn_6p0_CDNS_4066195472952_3/VSUBS a_1131_1121# np_6p0 pj=106u area=150p
D3 a_1131_1121# w_n51_7356# pn_6p0 pj=106u area=150p
D4 pn_6p0_CDNS_4066195472952_3/VSUBS a_1131_1121# np_6p0 pj=106u area=150p
D5 pn_6p0_CDNS_4066195472952_3/VSUBS a_1131_1121# np_6p0 pj=106u area=150p
D6 a_1131_1121# w_n51_7356# pn_6p0 pj=106u area=150p
D7 a_1131_1121# w_n51_7356# pn_6p0 pj=106u area=150p
.ends

.subckt GF_NI_ASIG_5P0_BASE a_13985_889# m2_828_38097# comp018green_esd_hbm_0/a_1131_1121#
+ a_377_21145# m2_13160_36497# np_6p0_CDNS_4066195472951_3/VSUBS w_2400_15668#
Xcomp018green_esd_hbm_0 w_2400_15668# comp018green_esd_hbm_0/a_1131_1121# np_6p0_CDNS_4066195472951_3/VSUBS
+ comp018green_esd_hbm
X0 np_6p0_CDNS_4066195472951_3/VSUBS w_2400_15668# np_6p0_CDNS_4066195472951_3/VSUBS np_6p0_CDNS_4066195472951_3/VSUBS nmos_6p0 w=15u l=15u
D0 np_6p0_CDNS_4066195472951_3/VSUBS w_2400_15668# np_6p0 pj=82u area=40p
X1 np_6p0_CDNS_4066195472951_3/VSUBS w_2400_15668# np_6p0_CDNS_4066195472951_3/VSUBS np_6p0_CDNS_4066195472951_3/VSUBS nmos_6p0 w=15u l=15u
X2 np_6p0_CDNS_4066195472951_3/VSUBS w_2400_15668# np_6p0_CDNS_4066195472951_3/VSUBS np_6p0_CDNS_4066195472951_3/VSUBS nmos_6p0 w=15u l=15u
X3 np_6p0_CDNS_4066195472951_3/VSUBS w_2400_15668# np_6p0_CDNS_4066195472951_3/VSUBS np_6p0_CDNS_4066195472951_3/VSUBS nmos_6p0 w=15u l=15u
X4 np_6p0_CDNS_4066195472951_3/VSUBS w_2400_15668# np_6p0_CDNS_4066195472951_3/VSUBS np_6p0_CDNS_4066195472951_3/VSUBS nmos_6p0 w=15u l=15u
X5 np_6p0_CDNS_4066195472951_3/VSUBS w_2400_15668# np_6p0_CDNS_4066195472951_3/VSUBS np_6p0_CDNS_4066195472951_3/VSUBS nmos_6p0 w=15u l=15u
X6 np_6p0_CDNS_4066195472951_3/VSUBS w_2400_15668# np_6p0_CDNS_4066195472951_3/VSUBS np_6p0_CDNS_4066195472951_3/VSUBS nmos_6p0 w=15u l=15u
X7 np_6p0_CDNS_4066195472951_3/VSUBS w_2400_15668# np_6p0_CDNS_4066195472951_3/VSUBS np_6p0_CDNS_4066195472951_3/VSUBS nmos_6p0 w=15u l=15u
X8 np_6p0_CDNS_4066195472951_3/VSUBS w_2400_15668# np_6p0_CDNS_4066195472951_3/VSUBS np_6p0_CDNS_4066195472951_3/VSUBS nmos_6p0 w=15u l=15u
X9 np_6p0_CDNS_4066195472951_3/VSUBS w_2400_15668# np_6p0_CDNS_4066195472951_3/VSUBS np_6p0_CDNS_4066195472951_3/VSUBS nmos_6p0 w=15u l=15u
X10 np_6p0_CDNS_4066195472951_3/VSUBS w_2400_15668# np_6p0_CDNS_4066195472951_3/VSUBS np_6p0_CDNS_4066195472951_3/VSUBS nmos_6p0 w=15u l=15u
X11 np_6p0_CDNS_4066195472951_3/VSUBS w_2400_15668# np_6p0_CDNS_4066195472951_3/VSUBS np_6p0_CDNS_4066195472951_3/VSUBS nmos_6p0 w=15u l=15u
X12 np_6p0_CDNS_4066195472951_3/VSUBS w_2400_15668# np_6p0_CDNS_4066195472951_3/VSUBS np_6p0_CDNS_4066195472951_3/VSUBS nmos_6p0 w=15u l=15u
X13 np_6p0_CDNS_4066195472951_3/VSUBS w_2400_15668# np_6p0_CDNS_4066195472951_3/VSUBS np_6p0_CDNS_4066195472951_3/VSUBS nmos_6p0 w=15u l=15u
X14 np_6p0_CDNS_4066195472951_3/VSUBS w_2400_15668# np_6p0_CDNS_4066195472951_3/VSUBS np_6p0_CDNS_4066195472951_3/VSUBS nmos_6p0 w=15u l=15u
X15 np_6p0_CDNS_4066195472951_3/VSUBS w_2400_15668# np_6p0_CDNS_4066195472951_3/VSUBS np_6p0_CDNS_4066195472951_3/VSUBS nmos_6p0 w=15u l=15u
X16 np_6p0_CDNS_4066195472951_3/VSUBS w_2400_15668# np_6p0_CDNS_4066195472951_3/VSUBS np_6p0_CDNS_4066195472951_3/VSUBS nmos_6p0 w=15u l=15u
X17 np_6p0_CDNS_4066195472951_3/VSUBS w_2400_15668# np_6p0_CDNS_4066195472951_3/VSUBS np_6p0_CDNS_4066195472951_3/VSUBS nmos_6p0 w=15u l=15u
X18 np_6p0_CDNS_4066195472951_3/VSUBS w_2400_15668# np_6p0_CDNS_4066195472951_3/VSUBS np_6p0_CDNS_4066195472951_3/VSUBS nmos_6p0 w=15u l=15u
X19 np_6p0_CDNS_4066195472951_3/VSUBS w_2400_15668# np_6p0_CDNS_4066195472951_3/VSUBS np_6p0_CDNS_4066195472951_3/VSUBS nmos_6p0 w=15u l=15u
X20 np_6p0_CDNS_4066195472951_3/VSUBS w_2400_15668# np_6p0_CDNS_4066195472951_3/VSUBS np_6p0_CDNS_4066195472951_3/VSUBS nmos_6p0 w=15u l=15u
X21 np_6p0_CDNS_4066195472951_3/VSUBS w_2400_15668# np_6p0_CDNS_4066195472951_3/VSUBS np_6p0_CDNS_4066195472951_3/VSUBS nmos_6p0 w=15u l=15u
X22 np_6p0_CDNS_4066195472951_3/VSUBS w_2400_15668# np_6p0_CDNS_4066195472951_3/VSUBS np_6p0_CDNS_4066195472951_3/VSUBS nmos_6p0 w=15u l=15u
X23 np_6p0_CDNS_4066195472951_3/VSUBS w_2400_15668# np_6p0_CDNS_4066195472951_3/VSUBS np_6p0_CDNS_4066195472951_3/VSUBS nmos_6p0 w=15u l=15u
X24 np_6p0_CDNS_4066195472951_3/VSUBS w_2400_15668# np_6p0_CDNS_4066195472951_3/VSUBS np_6p0_CDNS_4066195472951_3/VSUBS nmos_6p0 w=15u l=15u
X25 np_6p0_CDNS_4066195472951_3/VSUBS w_2400_15668# np_6p0_CDNS_4066195472951_3/VSUBS np_6p0_CDNS_4066195472951_3/VSUBS nmos_6p0 w=15u l=15u
X26 np_6p0_CDNS_4066195472951_3/VSUBS w_2400_15668# np_6p0_CDNS_4066195472951_3/VSUBS np_6p0_CDNS_4066195472951_3/VSUBS nmos_6p0 w=15u l=15u
D1 np_6p0_CDNS_4066195472951_3/VSUBS w_2400_15668# np_6p0 pj=82u area=40p
X27 np_6p0_CDNS_4066195472951_3/VSUBS w_2400_15668# np_6p0_CDNS_4066195472951_3/VSUBS np_6p0_CDNS_4066195472951_3/VSUBS nmos_6p0 w=15u l=15u
X28 np_6p0_CDNS_4066195472951_3/VSUBS w_2400_15668# np_6p0_CDNS_4066195472951_3/VSUBS np_6p0_CDNS_4066195472951_3/VSUBS nmos_6p0 w=15u l=15u
X29 np_6p0_CDNS_4066195472951_3/VSUBS w_2400_15668# np_6p0_CDNS_4066195472951_3/VSUBS np_6p0_CDNS_4066195472951_3/VSUBS nmos_6p0 w=15u l=15u
X30 np_6p0_CDNS_4066195472951_3/VSUBS w_2400_15668# np_6p0_CDNS_4066195472951_3/VSUBS np_6p0_CDNS_4066195472951_3/VSUBS nmos_6p0 w=15u l=15u
X31 np_6p0_CDNS_4066195472951_3/VSUBS w_2400_15668# np_6p0_CDNS_4066195472951_3/VSUBS np_6p0_CDNS_4066195472951_3/VSUBS nmos_6p0 w=15u l=15u
X32 np_6p0_CDNS_4066195472951_3/VSUBS w_2400_15668# np_6p0_CDNS_4066195472951_3/VSUBS np_6p0_CDNS_4066195472951_3/VSUBS nmos_6p0 w=15u l=15u
D2 np_6p0_CDNS_4066195472951_3/VSUBS w_2400_15668# np_6p0 pj=82u area=40p
X33 np_6p0_CDNS_4066195472951_3/VSUBS w_2400_15668# np_6p0_CDNS_4066195472951_3/VSUBS np_6p0_CDNS_4066195472951_3/VSUBS nmos_6p0 w=15u l=15u
X34 np_6p0_CDNS_4066195472951_3/VSUBS w_2400_15668# np_6p0_CDNS_4066195472951_3/VSUBS np_6p0_CDNS_4066195472951_3/VSUBS nmos_6p0 w=15u l=15u
D3 np_6p0_CDNS_4066195472951_3/VSUBS w_2400_15668# np_6p0 pj=82u area=40p
X35 np_6p0_CDNS_4066195472951_3/VSUBS w_2400_15668# np_6p0_CDNS_4066195472951_3/VSUBS np_6p0_CDNS_4066195472951_3/VSUBS nmos_6p0 w=15u l=15u
.ends

.subckt x4LM_METAL_RAIL_PAD_60 4LM_METAL_RAIL_0/VDD 4LM_METAL_RAIL_0/VSS VSUBS 4LM_METAL_RAIL_0/DVDD
+ 4LM_METAL_RAIL_0/DVSS Bondpad_4LM_0/m2_n400_0#
.ends

.subckt gf180mcu_fd_io__asig_5p0 DVDD VDD VSS
XGF_NI_ASIG_5P0_BASE_0 VSS VDD ASIG5V VSS VSS VSS DVDD GF_NI_ASIG_5P0_BASE
X4LM_METAL_RAIL_PAD_60_0 VDD VSS VSS DVDD VSS ASIG5V x4LM_METAL_RAIL_PAD_60
.ends



******* EOF

* NGSPICE file created from gf180mcu_fd_io__asig_5p0.ext - technology: gf180mcuB



******* EOF

* NGSPICE file created from gf180mcu_fd_io__bi_24t.ext - technology: gf180mcuB

.subckt pmos_6p0_esd w_0_12# a_278_44# a_974_132# a_120_132#
X0 a_120_132# a_120_132# w_0_12# pplus_u r_width=30u r_length=30.28u
X1 a_418_132# a_278_44# a_222_132# w_0_12# pmos_6p0_sab w=60u l=0.7u
X2 a_974_132# a_974_132# w_0_12# pplus_u r_width=30u r_length=32.78u
.ends

.subckt comp018green_out_drv_pleg_6T_X pmos_6p0_esd_1/a_974_132# pmos_6p0_esd_0/a_120_132#
+ pmos_6p0_esd_0/a_278_44# pmos_6p0_esd_1/a_120_132# pmos_6p0_esd_1/w_0_12# pmos_6p0_esd_1/a_278_44#
Xpmos_6p0_esd_0 pmos_6p0_esd_1/w_0_12# pmos_6p0_esd_0/a_278_44# pmos_6p0_esd_1/a_974_132#
+ pmos_6p0_esd_0/a_120_132# pmos_6p0_esd
Xpmos_6p0_esd_1 pmos_6p0_esd_1/w_0_12# pmos_6p0_esd_1/a_278_44# pmos_6p0_esd_1/a_974_132#
+ pmos_6p0_esd_1/a_120_132# pmos_6p0_esd
.ends

.subckt comp018green_out_drv_pleg_6T_Y pmos_6p0_esd_0/w_0_12# pmos_6p0_esd_0/a_974_132#
+ pmos_6p0_esd_0/a_120_132# pmos_6p0_esd_0/a_278_44#
Xpmos_6p0_esd_0 pmos_6p0_esd_0/w_0_12# pmos_6p0_esd_0/a_278_44# pmos_6p0_esd_0/a_974_132#
+ pmos_6p0_esd_0/a_120_132# pmos_6p0_esd
.ends

.subckt comp018green_out_paddrv_6T_PMOS_GROUP PMOS_metal_stack_5/m1_n44_0# a_9815_324#
+ a_6280_324# PMOS_metal_stack_5/m1_340_0# a_4511_324# PMOS_metal_stack_1/m1_340_0#
+ a_7662_324# PMOS_metal_stack_6/m1_n44_0# PMOS_metal_stack_2/m1_n44_0# PMOS_metal_stack_6/m1_340_0#
+ PMOS_metal_stack_2/m1_340_0# a_11201_324# a_5892_324# PMOS_metal_stack_3/m1_n44_0#
+ a_4120_324# a_974_324# a_8049_324# PMOS_metal_stack_3/m1_340_0# PMOS_metal_stack_4/m1_n44_0#
+ a_9428_324# w_0_n878# a_2360_324# a_2746_324# PMOS_metal_stack_4/m1_340_0#
Xcomp018green_out_drv_pleg_6T_X_0 PMOS_metal_stack_6/m1_340_0# PMOS_metal_stack_6/m1_n44_0#
+ a_9815_324# w_0_n878# w_0_n878# a_11201_324# comp018green_out_drv_pleg_6T_X
Xcomp018green_out_drv_pleg_6T_X_1 PMOS_metal_stack_4/m1_340_0# PMOS_metal_stack_4/m1_n44_0#
+ a_4511_324# PMOS_metal_stack_3/m1_n44_0# w_0_n878# a_5892_324# comp018green_out_drv_pleg_6T_X
Xcomp018green_out_drv_pleg_6T_X_2 PMOS_metal_stack_3/m1_340_0# PMOS_metal_stack_2/m1_n44_0#
+ a_7662_324# PMOS_metal_stack_3/m1_n44_0# w_0_n878# a_6280_324# comp018green_out_drv_pleg_6T_X
Xcomp018green_out_drv_pleg_6T_X_3 PMOS_metal_stack_1/m1_340_0# PMOS_metal_stack_5/m1_n44_0#
+ a_2360_324# w_0_n878# w_0_n878# a_974_324# comp018green_out_drv_pleg_6T_X
Xcomp018green_out_drv_pleg_6T_Y_0 w_0_n878# PMOS_metal_stack_2/m1_340_0# PMOS_metal_stack_6/m1_n44_0#
+ a_9428_324# comp018green_out_drv_pleg_6T_Y
Xcomp018green_out_drv_pleg_6T_Y_2 w_0_n878# PMOS_metal_stack_2/m1_340_0# PMOS_metal_stack_2/m1_n44_0#
+ a_8049_324# comp018green_out_drv_pleg_6T_Y
Xcomp018green_out_drv_pleg_6T_Y_1 w_0_n878# PMOS_metal_stack_5/m1_340_0# PMOS_metal_stack_4/m1_n44_0#
+ a_4120_324# comp018green_out_drv_pleg_6T_Y
Xcomp018green_out_drv_pleg_6T_Y_3 w_0_n878# PMOS_metal_stack_5/m1_340_0# PMOS_metal_stack_5/m1_n44_0#
+ a_2746_324# comp018green_out_drv_pleg_6T_Y
.ends

.subckt comp018green_out_drv_nleg_6T a_2010_44# a_206_44# a_1122_132# a_48_132# a_2226_132#
+ VSUBS
X0 a_2226_132# a_2226_132# VSUBS nplus_u r_width=18.5u r_length=18.78u
X1 a_1122_132# a_1122_132# VSUBS nplus_u r_width=18.5u r_length=22.28u
X2 a_48_132# a_48_132# VSUBS nplus_u r_width=18.5u r_length=18.78u
X3 a_366_132# a_206_44# a_150_132# VSUBS nmos_6p0_sab w=37u l=0.8u
X4 a_1122_132# a_1122_132# VSUBS nplus_u r_width=18.5u r_length=22.28u
X5 a_2170_132# a_2010_44# a_1254_132# VSUBS nmos_6p0_sab w=37u l=0.8u
.ends

.subckt comp018green_out_paddrv_6T_NMOS_GROUP a_7417_641# GR_NMOS_0/w_n1789_n834#
+ a_794_641# a_3002_641# a_2598_641# a_4806_641# nmos_metal_stack_3/m1_360_0# nmos_metal_stack_2/m1_n44_0#
+ a_9222_641# nmos_metal_stack_4/m1_360_0# nmos_metal_stack_3/m1_n44_0# nmos_metal_stack_1/m1_360_0#
+ a_7014_641# a_5210_8312# nmos_metal_stack_1/m1_n44_0# VSUBS nmos_metal_stack_2/m1_360_0#
Xcomp018green_out_drv_nleg_6T_0 a_9222_641# a_7417_641# nmos_metal_stack_1/m1_360_0#
+ nmos_metal_stack_1/m1_n44_0# VSUBS VSUBS comp018green_out_drv_nleg_6T
Xcomp018green_out_drv_nleg_6T_1 a_7014_641# a_5210_8312# nmos_metal_stack_2/m1_360_0#
+ nmos_metal_stack_2/m1_n44_0# nmos_metal_stack_1/m1_n44_0# VSUBS comp018green_out_drv_nleg_6T
Xcomp018green_out_drv_nleg_6T_2 a_4806_641# a_3002_641# nmos_metal_stack_3/m1_360_0#
+ nmos_metal_stack_3/m1_n44_0# nmos_metal_stack_2/m1_n44_0# VSUBS comp018green_out_drv_nleg_6T
Xcomp018green_out_drv_nleg_6T_3 a_2598_641# a_794_641# nmos_metal_stack_4/m1_360_0#
+ VSUBS nmos_metal_stack_3/m1_n44_0# VSUBS comp018green_out_drv_nleg_6T
.ends

.subckt comp018green_out_paddrv_24T comp018green_out_paddrv_6T_PMOS_GROUP_0/a_9428_324#
+ comp018green_out_paddrv_6T_PMOS_GROUP_0/PMOS_metal_stack_3/m1_n44_0# comp018green_out_paddrv_6T_PMOS_GROUP_0/a_2360_324#
+ m1_1417_9446# comp018green_out_paddrv_6T_PMOS_GROUP_0/a_2746_324# m1_11881_9446#
+ comp018green_out_paddrv_6T_NMOS_GROUP_0/nmos_metal_stack_3/m1_n44_0# comp018green_out_paddrv_6T_PMOS_GROUP_0/a_974_324#
+ comp018green_out_paddrv_6T_PMOS_GROUP_0/PMOS_metal_stack_4/m1_n44_0# comp018green_out_paddrv_6T_PMOS_GROUP_0/a_9815_324#
+ comp018green_out_paddrv_6T_PMOS_GROUP_0/a_4511_324# comp018green_out_paddrv_6T_PMOS_GROUP_0/a_6280_324#
+ comp018green_out_paddrv_6T_PMOS_GROUP_0/w_0_n878# comp018green_out_paddrv_6T_PMOS_GROUP_0/a_7662_324#
+ comp018green_out_paddrv_6T_PMOS_GROUP_0/PMOS_metal_stack_5/m1_n44_0# m1_1417_9278#
+ m1_11881_9278# comp018green_out_paddrv_6T_PMOS_GROUP_0/a_11201_324# m1_1417_8952#
+ m1_1417_9118# m1_11881_8952# m1_11881_9118# comp018green_out_paddrv_6T_PMOS_GROUP_0/a_5892_324#
+ comp018green_out_paddrv_6T_NMOS_GROUP_0/nmos_metal_stack_1/m1_n44_0# comp018green_out_paddrv_6T_PMOS_GROUP_0/PMOS_metal_stack_6/m1_n44_0#
+ comp018green_out_paddrv_6T_PMOS_GROUP_0/PMOS_metal_stack_2/m1_n44_0# comp018green_out_paddrv_6T_PMOS_GROUP_0/a_4120_324#
+ m1_n360_8482# comp018green_out_paddrv_6T_PMOS_GROUP_0/a_8049_324# m2_1697_8943#
+ comp018green_out_paddrv_6T_NMOS_GROUP_0/nmos_metal_stack_2/m1_n44_0# VSUBS
Xcomp018green_out_paddrv_6T_PMOS_GROUP_0 comp018green_out_paddrv_6T_PMOS_GROUP_0/PMOS_metal_stack_5/m1_n44_0#
+ comp018green_out_paddrv_6T_PMOS_GROUP_0/a_9815_324# comp018green_out_paddrv_6T_PMOS_GROUP_0/a_6280_324#
+ m2_1697_8943# comp018green_out_paddrv_6T_PMOS_GROUP_0/a_4511_324# m2_1697_8943#
+ comp018green_out_paddrv_6T_PMOS_GROUP_0/a_7662_324# comp018green_out_paddrv_6T_PMOS_GROUP_0/PMOS_metal_stack_6/m1_n44_0#
+ comp018green_out_paddrv_6T_PMOS_GROUP_0/PMOS_metal_stack_2/m1_n44_0# m2_1697_8943#
+ m2_1697_8943# comp018green_out_paddrv_6T_PMOS_GROUP_0/a_11201_324# comp018green_out_paddrv_6T_PMOS_GROUP_0/a_5892_324#
+ comp018green_out_paddrv_6T_PMOS_GROUP_0/PMOS_metal_stack_3/m1_n44_0# comp018green_out_paddrv_6T_PMOS_GROUP_0/a_4120_324#
+ comp018green_out_paddrv_6T_PMOS_GROUP_0/a_974_324# comp018green_out_paddrv_6T_PMOS_GROUP_0/a_8049_324#
+ m2_1697_8943# comp018green_out_paddrv_6T_PMOS_GROUP_0/PMOS_metal_stack_4/m1_n44_0#
+ comp018green_out_paddrv_6T_PMOS_GROUP_0/a_9428_324# comp018green_out_paddrv_6T_PMOS_GROUP_0/w_0_n878#
+ comp018green_out_paddrv_6T_PMOS_GROUP_0/a_2360_324# comp018green_out_paddrv_6T_PMOS_GROUP_0/a_2746_324#
+ m2_1697_8943# comp018green_out_paddrv_6T_PMOS_GROUP
Xcomp018green_out_paddrv_6T_NMOS_GROUP_0 m1_11881_9118# m1_n360_8482# m1_1417_8952#
+ m1_1417_9278# m1_1417_9118# m1_1417_9446# m2_1697_8943# comp018green_out_paddrv_6T_NMOS_GROUP_0/nmos_metal_stack_2/m1_n44_0#
+ m1_11881_8952# m2_1697_8943# comp018green_out_paddrv_6T_NMOS_GROUP_0/nmos_metal_stack_3/m1_n44_0#
+ m2_1697_8943# m1_11881_9278# m1_11881_9446# comp018green_out_paddrv_6T_NMOS_GROUP_0/nmos_metal_stack_1/m1_n44_0#
+ VSUBS m2_1697_8943# comp018green_out_paddrv_6T_NMOS_GROUP
.ends

.subckt comp018green_sigbuf_1 Z A ZB DVDD VDD VSS
X0 a_457_354# A VDD VDD pmos_6p0 w=3u l=0.7u
X1 VSS a_457_354# Z VSS nmos_6p0 w=1.5u l=0.7u
X2 VSS Z ZB VSS nmos_6p0 w=1.5u l=0.7u
X3 Z a_457_354# DVDD DVDD pmos_6p0 w=3u l=0.7u
X4 ZB Z DVDD DVDD pmos_6p0 w=3u l=0.7u
X5 DVDD Z ZB DVDD pmos_6p0 w=3u l=0.7u
X6 a_457_354# A VSS VSS nmos_6p0 w=1.5u l=0.7u
X7 ZB Z VSS VSS nmos_6p0 w=1.5u l=0.7u
X8 DVDD a_457_354# Z DVDD pmos_6p0 w=3u l=0.7u
X9 Z a_457_354# VSS VSS nmos_6p0 w=1.5u l=0.7u
.ends

.subckt comp018green_out_predrv SL SLB NDRIVE_X ENB A NDRIVE_Y PDRIVE_Y PDRIVE_X EN
+ DVDD DVSS
X0 PDRIVE_Y a_1395_3267# DVDD DVDD pmos_6p0 w=12u l=0.7u
X1 DVDD a_1395_3267# PDRIVE_X DVDD pmos_6p0 w=12u l=0.7u
X2 PDRIVE_Y a_1395_3267# DVSS DVSS nmos_6p0 w=6u l=0.7u
X3 DVSS a_1395_3267# PDRIVE_Y DVSS nmos_6p0 w=6u l=0.7u
X4 NDRIVE_X SL NDRIVE_Y DVDD pmos_6p0 w=12u l=0.7u
X5 a_1395_3267# ENB DVSS DVSS nmos_6p0 w=6u l=0.7u
X6 DVDD a_1395_3267# PDRIVE_Y DVDD pmos_6p0 w=12u l=0.7u
X7 NDRIVE_X a_335_226# DVSS DVSS nmos_6p0 w=6u l=0.7u
X8 a_335_226# EN a_1395_3267# DVSS nmos_6p0 w=6u l=0.7u
X9 NDRIVE_Y SL NDRIVE_X DVDD pmos_6p0 w=12u l=0.7u
X10 DVSS a_335_226# NDRIVE_X DVSS nmos_6p0 w=6u l=0.7u
X11 a_335_226# A DVDD DVDD pmos_6p0 w=12u l=0.7u
X12 DVDD a_335_226# NDRIVE_Y DVDD pmos_6p0 w=12u l=0.7u
X13 PDRIVE_X a_1395_3267# DVDD DVDD pmos_6p0 w=12u l=0.7u
X14 PDRIVE_X DVDD PDRIVE_Y DVSS nmos_6p0 w=1.2u l=0.7u
X15 PDRIVE_Y SLB PDRIVE_X DVSS nmos_6p0 w=6u l=0.7u
X16 NDRIVE_Y a_335_226# DVSS DVSS nmos_6p0 w=6u l=0.7u
X17 PDRIVE_X SLB PDRIVE_Y DVSS nmos_6p0 w=6u l=0.7u
X18 NDRIVE_Y a_335_226# DVDD DVDD pmos_6p0 w=12u l=0.7u
X19 a_335_226# ENB a_1395_3267# DVDD pmos_6p0 w=12u l=0.7u
X20 DVSS A a_1395_3267# DVSS nmos_6p0 w=6u l=0.7u
X21 DVDD EN a_335_226# DVDD pmos_6p0 w=12u l=0.7u
X22 NDRIVE_Y DVSS NDRIVE_X DVDD pmos_6p0 w=1.2u l=0.7u
X23 DVSS a_335_226# NDRIVE_Y DVSS nmos_6p0 w=6u l=0.7u
.ends

.subckt comp018green_out_sigbuf_a AB A OE DVDD VDD VSS
X0 DVDD a_426_1958# a_1825_270# DVDD pmos_6p0 w=6u l=0.7u
X1 a_426_270# OE VSS VSS nmos_6p0 w=3u l=0.7u
X2 a_426_1958# OE VDD VDD pmos_6p0 w=3u l=0.7u
X3 AB a_1825_270# VSS VSS nmos_6p0 w=3u l=0.7u
X4 AB a_1825_270# DVDD DVDD pmos_6p0 w=6u l=0.7u
X5 VSS a_426_1958# a_1825_270# VSS nmos_6p0 w=3u l=0.7u
X6 a_426_1958# A a_426_270# VSS nmos_6p0 w=3u l=0.7u
X7 VDD A a_426_1958# VDD pmos_6p0 w=3u l=0.7u
.ends

.subckt comp018green_out_sigbuf_oe ENB EN OE DVDD PDRV VDD VSS
X0 VDD OE a_494_1958# VDD pmos_6p0 w=3u l=0.7u
D0 VSS OE pn_6p0 pj=1.92u area=0.2304p
D1 VSS PDRV pn_6p0 pj=1.92u area=0.2304p
X1 DVDD a_494_1958# EN DVDD pmos_6p0 w=6u l=0.7u
X2 a_494_270# PDRV VSS VSS nmos_6p0 w=3u l=0.7u
X3 a_494_1958# OE a_494_270# VSS nmos_6p0 w=3u l=0.7u
X4 a_494_1958# PDRV VDD VDD pmos_6p0 w=3u l=0.7u
X5 VSS a_494_1958# EN VSS nmos_6p0 w=3u l=0.7u
X6 ENB EN DVDD DVDD pmos_6p0 w=6u l=0.7u
X7 ENB EN VSS VSS nmos_6p0 w=3u l=0.7u
.ends

.subckt comp018green_in_pupd A PU_B PD w_n83_53# DVDD DVSS a_6234_n7404#
X0 a_404_1604# a_7646_1884# DVSS ppolyf_u r_width=0.8u r_length=35.7u
X1 a_404_1604# a_7646_1324# DVSS ppolyf_u r_width=0.8u r_length=35.7u
X2 DVSS PD a_6278_n7492# DVSS nmos_6p0 w=1.5u l=0.7u
X3 a_404_1044# a_7646_1324# DVSS ppolyf_u r_width=0.8u r_length=35.7u
X4 a_404_2164# a_6278_n7492# DVSS ppolyf_u r_width=0.8u r_length=35.7u
X5 DVDD a_6234_n7404# a_6278_n7492# DVDD pmos_6p0 w=3u l=0.7u
X6 a_404_484# a_7646_764# DVSS ppolyf_u r_width=0.8u r_length=35.7u
X7 a_404_1044# a_7646_764# DVSS ppolyf_u r_width=0.8u r_length=35.7u
X8 a_404_2164# a_7646_1884# DVSS ppolyf_u r_width=0.8u r_length=35.7u
X9 a_404_484# A DVSS ppolyf_u r_width=0.8u r_length=23u
.ends

.subckt comp018green_std_xor2 B Z A VDD VSS
X0 Z a_878_310# A VSS nmos_6p0 w=1.5u l=0.7u
X1 a_602_354# a_878_310# Z VDD pmos_6p0 w=3u l=0.7u
X2 a_602_354# A VSS VSS nmos_6p0 w=1.5u l=0.7u
X3 VDD B a_878_310# VDD pmos_6p0 w=3u l=0.7u
X4 VSS B a_878_310# VSS nmos_6p0 w=1.5u l=0.7u
X5 a_602_354# A VDD VDD pmos_6p0 w=3u l=0.7u
X6 a_602_354# B Z VSS nmos_6p0 w=1.5u l=0.7u
X7 Z B A VDD pmos_6p0 w=3u l=0.7u
.ends

.subckt comp018green_std_nand2 A B Z VDD VSS
X0 VDD B Z VDD pmos_6p0 w=3u l=0.7u
X1 a_476_281# A VSS VSS nmos_6p0 w=3u l=0.7u
X2 Z B a_476_281# VSS nmos_6p0 w=3u l=0.7u
X3 Z A VDD VDD pmos_6p0 w=3u l=0.7u
.ends

.subckt comp018green_in_logic_pupd PD_IN PUB_OUT PDB_OUT VDD VSS comp018green_std_nand2_1/VDD
+ comp018green_std_xor2_0/VDD comp018green_std_xor2_0/A comp018green_std_nand2_1/Z
+ comp018green_std_xor2_0/B VSUBS
Xcomp018green_std_xor2_0 comp018green_std_xor2_0/B comp018green_std_xor2_0/Z comp018green_std_xor2_0/A
+ comp018green_std_xor2_0/VDD VSUBS comp018green_std_xor2
Xcomp018green_std_nand2_0 comp018green_std_xor2_0/Z comp018green_std_xor2_0/B comp018green_std_nand2_0/Z
+ comp018green_std_nand2_1/VDD VSUBS comp018green_std_nand2
Xcomp018green_std_nand2_1 comp018green_std_xor2_0/A comp018green_std_xor2_0/Z comp018green_std_nand2_1/Z
+ comp018green_std_nand2_1/VDD VSUBS comp018green_std_nand2
.ends

.subckt comp018green_sigbuf Z A ZB DVDD VDD VSS
X0 Z a_456_354# VSS VSS nmos_6p0 w=1.5u l=0.7u
X1 Z a_456_354# DVDD DVDD pmos_6p0 w=3u l=0.7u
X2 DVDD a_456_354# Z DVDD pmos_6p0 w=3u l=0.7u
X3 ZB Z VSS VSS nmos_6p0 w=1.5u l=0.7u
X4 VSS Z ZB VSS nmos_6p0 w=1.5u l=0.7u
X5 DVDD Z ZB DVDD pmos_6p0 w=3u l=0.7u
X6 VSS a_456_354# Z VSS nmos_6p0 w=1.5u l=0.7u
X7 a_456_354# A VDD VDD pmos_6p0 w=3u l=0.7u
X8 a_456_354# A VSS VSS nmos_6p0 w=1.5u l=0.7u
X9 ZB Z DVDD DVDD pmos_6p0 w=3u l=0.7u
.ends

.subckt comp018green_in_drv A VSS Z a_2699_270# DVDD VDD
X0 VSS Z a_2699_270# VSS nmos_6p0 w=1.5u l=0.7u
X1 Z a_n180_263# VSS VSS nmos_6p0 w=1.25u l=0.7u
X2 VDD Z a_2699_270# VDD pmos_6p0 w=3.5u l=0.7u
X3 a_2699_270# Z VDD VDD pmos_6p0 w=3.5u l=0.7u
X4 VSS a_n180_263# Z VSS nmos_6p0 w=1.25u l=0.7u
X5 VSS Z a_2699_270# VSS nmos_6p0 w=1.5u l=0.7u
X6 Z a_n180_263# VDD VDD pmos_6p0 w=2.5u l=0.7u
X7 VSS A a_n180_263# VSS nmos_6p0 w=4u l=0.7u
X8 a_n180_263# A VSS VSS nmos_6p0 w=4u l=0.7u
X9 a_2699_270# Z VSS VSS nmos_6p0 w=1.5u l=0.7u
X10 VDD a_n180_263# Z VDD pmos_6p0 w=2.5u l=0.7u
X11 VDD Z a_2699_270# VDD pmos_6p0 w=3.5u l=0.7u
X12 VDD a_n180_263# Z VDD pmos_6p0 w=2.5u l=0.7u
X13 VSS Z a_2699_270# VSS nmos_6p0 w=1.5u l=0.7u
X14 a_2699_270# Z VDD VDD pmos_6p0 w=3.5u l=0.7u
X15 a_2699_270# Z VDD VDD pmos_6p0 w=3.5u l=0.7u
X16 Z a_n180_263# VDD VDD pmos_6p0 w=2.5u l=0.7u
X17 a_2699_270# Z VSS VSS nmos_6p0 w=1.5u l=0.7u
X18 VDD Z a_2699_270# VDD pmos_6p0 w=3.5u l=0.7u
X19 a_n180_263# A DVDD DVDD pmos_6p0 w=2u l=0.7u
X20 a_2699_270# Z VSS VSS nmos_6p0 w=1.5u l=0.7u
.ends

.subckt comp018green_in_cms_smt IE CS A Z a_5355_608# m2_5364_1052# DVDD DVSS a_459_236#
X0 DVDD a_459_236# a_599_280# DVDD pmos_6p0 w=4u l=0.7u
X1 a_1887_280# IE DVSS DVSS nmos_6p0 w=3.2u l=0.7u
X2 Z A a_3115_338# DVSS nmos_6p0 w=3u l=0.7u
X3 a_1809_1797# CS DVDD DVDD pmos_6p0 w=1.5u l=0.7u
X4 DVSS IE a_1887_280# DVSS nmos_6p0 w=3.2u l=0.7u
X5 a_1887_280# IE DVSS DVSS nmos_6p0 w=3.2u l=0.7u
X6 a_3115_338# a_1082_620# a_5355_608# DVSS nmos_6p0 w=1.3u l=0.7u
X7 a_1082_620# a_599_280# Z DVDD pmos_6p0 w=2u l=0.7u
X8 DVSS a_459_236# a_599_280# DVSS nmos_6p0 w=2u l=0.7u
X9 DVSS a_1809_1797# a_3227_1730# DVDD pmos_6p0 w=1.9u l=0.7u
X10 DVSS IE a_1887_280# DVSS nmos_6p0 w=3.2u l=0.7u
X11 Z CS a_1809_1797# DVSS nmos_6p0 w=1.5u l=0.7u
X12 Z IE DVDD DVDD pmos_6p0 w=2u l=0.7u
X13 Z a_599_280# a_1809_1797# DVDD pmos_6p0 w=2u l=0.7u
X14 a_1887_280# A a_3115_338# DVSS nmos_6p0 w=2.65u l=0.7u
X15 DVDD CS a_1809_1797# DVDD pmos_6p0 w=1.5u l=0.7u
X16 Z A a_3227_1730# DVDD pmos_6p0 w=2.15u l=0.7u
X17 a_3115_338# A a_1887_280# DVSS nmos_6p0 w=2.65u l=0.7u
X18 DVSS a_599_280# a_1082_620# DVSS nmos_6p0 w=1.5u l=0.7u
X19 a_1887_280# A a_3115_338# DVSS nmos_6p0 w=2.65u l=0.7u
X20 a_3227_1730# A Z DVDD pmos_6p0 w=2.15u l=0.7u
X21 DVDD A a_3227_1730# DVDD pmos_6p0 w=1.9u l=0.7u
X22 a_1887_280# IE DVSS DVSS nmos_6p0 w=3.2u l=0.7u
X23 Z A a_3115_338# DVSS nmos_6p0 w=3u l=0.7u
X24 a_599_280# a_459_236# DVDD DVDD pmos_6p0 w=4u l=0.7u
X25 Z IE DVDD DVDD pmos_6p0 w=2u l=0.7u
X26 a_3115_338# A Z DVSS nmos_6p0 w=3u l=0.7u
X27 DVDD IE Z DVDD pmos_6p0 w=2u l=0.7u
X28 a_1082_620# CS Z DVSS nmos_6p0 w=1.5u l=0.7u
X29 a_3115_338# A a_1887_280# DVSS nmos_6p0 w=2.65u l=0.7u
X30 a_3115_338# A Z DVSS nmos_6p0 w=3u l=0.7u
X31 a_3227_1730# A DVDD DVDD pmos_6p0 w=1.9u l=0.7u
X32 a_3227_1730# a_1809_1797# DVSS DVDD pmos_6p0 w=1.9u l=0.7u
X33 a_599_280# a_459_236# DVSS DVSS nmos_6p0 w=2u l=0.7u
.ends

.subckt comp018green_inpath_cms_smt PAD IE CS PD PU VDD comp018green_in_logic_pupd_0/comp018green_std_xor2_0/VDD
+ comp018green_in_cms_smt_0/a_5355_608# comp018green_in_logic_pupd_0/VDD comp018green_in_pupd_0/w_n83_53#
+ comp018green_in_pupd_0/A comp018green_in_pupd_0/DVDD comp018green_sigbuf_2/VDD comp018green_sigbuf_1/VDD
+ comp018green_in_drv_0/DVDD m1_12910_4326# comp018green_sigbuf_3/DVDD comp018green_in_drv_0/VDD
+ comp018green_sigbuf_3/VDD comp018green_in_logic_pupd_0/comp018green_std_nand2_1/VDD
+ VSUBS comp018green_sigbuf_2/DVDD
Xcomp018green_in_pupd_0 comp018green_in_pupd_0/A comp018green_in_pupd_0/PU_B comp018green_sigbuf_0/ZB
+ comp018green_in_pupd_0/w_n83_53# comp018green_in_pupd_0/DVDD VSUBS comp018green_sigbuf_2/Z
+ comp018green_in_pupd
Xcomp018green_in_logic_pupd_0 PD comp018green_sigbuf_2/A comp018green_sigbuf_0/A comp018green_in_logic_pupd_0/VDD
+ VSUBS comp018green_in_logic_pupd_0/comp018green_std_nand2_1/VDD comp018green_in_logic_pupd_0/comp018green_std_xor2_0/VDD
+ PU comp018green_sigbuf_2/A PD VSUBS comp018green_in_logic_pupd
Xcomp018green_sigbuf_0 comp018green_sigbuf_0/Z comp018green_sigbuf_0/A comp018green_sigbuf_0/ZB
+ comp018green_sigbuf_2/DVDD comp018green_sigbuf_3/VDD VSUBS comp018green_sigbuf
Xcomp018green_sigbuf_1 comp018green_sigbuf_1/Z IE comp018green_sigbuf_1/ZB comp018green_sigbuf_3/DVDD
+ comp018green_sigbuf_1/VDD VSUBS comp018green_sigbuf
Xcomp018green_sigbuf_2 comp018green_sigbuf_2/Z comp018green_sigbuf_2/A comp018green_sigbuf_2/ZB
+ comp018green_sigbuf_2/DVDD comp018green_sigbuf_2/VDD VSUBS comp018green_sigbuf
Xcomp018green_sigbuf_3 comp018green_sigbuf_3/Z CS comp018green_sigbuf_3/ZB comp018green_sigbuf_3/DVDD
+ comp018green_sigbuf_3/VDD VSUBS comp018green_sigbuf
Xcomp018green_in_drv_0 comp018green_in_drv_0/A VSUBS comp018green_in_drv_0/Z m1_12910_4326#
+ comp018green_in_drv_0/DVDD comp018green_in_drv_0/VDD comp018green_in_drv
Xcomp018green_in_cms_smt_0 comp018green_sigbuf_1/Z comp018green_sigbuf_3/Z PAD comp018green_in_drv_0/A
+ comp018green_in_cms_smt_0/a_5355_608# PAD comp018green_in_drv_0/DVDD VSUBS comp018green_sigbuf_3/Z
+ comp018green_in_cms_smt
D0 IE comp018green_sigbuf_1/VDD pn_6p0 pj=4u area=1p
D1 CS comp018green_sigbuf_1/VDD pn_6p0 pj=4u area=1p
D2 PD comp018green_sigbuf_1/VDD pn_6p0 pj=4u area=1p
D3 PU comp018green_sigbuf_1/VDD pn_6p0 pj=4u area=1p
.ends

.subckt comp018green_esd_cdm IP_IN PAD DVDD DVSS w_n83_n83# a_537_566# w_454_3720#
D0 IP_IN w_454_3720# pn_6p0 pj=42u area=20p
X0 IP_IN PAD DVSS ppolyf_u r_width=2.5u r_length=2.8u
D1 DVSS IP_IN np_6p0 pj=42u area=20p
D2 IP_IN w_454_3720# pn_6p0 pj=42u area=20p
D3 DVSS IP_IN np_6p0 pj=42u area=20p
X1 IP_IN PAD DVSS ppolyf_u r_width=2.5u r_length=2.8u
X2 IP_IN PAD DVSS ppolyf_u r_width=2.5u r_length=2.8u
X3 IP_IN PAD DVSS ppolyf_u r_width=2.5u r_length=2.8u
.ends

.subckt GF_NI_BI_24T_BASE OE PU a_2331_55684# comp018green_out_paddrv_24T_0/comp018green_out_paddrv_6T_PMOS_GROUP_0/PMOS_metal_stack_5/m1_n44_0#
+ IE comp018green_out_paddrv_24T_0/comp018green_out_paddrv_6T_NMOS_GROUP_0/nmos_metal_stack_1/m1_n44_0#
+ comp018green_out_paddrv_24T_0/comp018green_out_paddrv_6T_PMOS_GROUP_0/PMOS_metal_stack_6/m1_n44_0#
+ comp018green_esd_cdm_0/w_454_3720# comp018green_out_paddrv_24T_0/comp018green_out_paddrv_6T_PMOS_GROUP_0/PMOS_metal_stack_2/m1_n44_0#
+ comp018green_inpath_cms_smt_0/VDD PD a_12390_41178# comp018green_out_paddrv_24T_0/comp018green_out_paddrv_6T_NMOS_GROUP_0/nmos_metal_stack_2/m1_n44_0#
+ comp018green_out_sigbuf_oe_1/DVDD m2_1886_52453# comp018green_out_paddrv_24T_0/comp018green_out_paddrv_6T_PMOS_GROUP_0/PMOS_metal_stack_3/m1_n44_0#
+ comp018green_sigbuf_1_0/VDD comp018green_esd_cdm_0/DVDD PAD comp018green_out_sigbuf_oe_0/VDD
+ CS comp018green_inpath_cms_smt_0/comp018green_in_logic_pupd_0/VDD Y comp018green_out_sigbuf_a_0/DVDD
+ A SL m1_3904_44430# m1_3608_46314# comp018green_inpath_cms_smt_0/comp018green_sigbuf_3/DVDD
+ comp018green_out_paddrv_24T_0/comp018green_out_paddrv_6T_NMOS_GROUP_0/nmos_metal_stack_3/m1_n44_0#
+ comp018green_sigbuf_1_0/DVDD comp018green_out_sigbuf_oe_2/VDD comp018green_inpath_cms_smt_0/comp018green_in_drv_0/DVDD
+ comp018green_inpath_cms_smt_0/comp018green_in_drv_0/VDD a_14203_641# comp018green_out_paddrv_24T_0/comp018green_out_paddrv_6T_PMOS_GROUP_0/PMOS_metal_stack_4/m1_n44_0#
+ comp018green_sigbuf_1_0/VSS comp018green_inpath_cms_smt_0/comp018green_sigbuf_2/DVDD
+ comp018green_out_predrv_3/DVDD comp018green_out_paddrv_24T_0/comp018green_out_paddrv_6T_PMOS_GROUP_0/w_0_n878#
Xcomp018green_out_paddrv_24T_0 comp018green_out_predrv_1/PDRIVE_Y comp018green_out_paddrv_24T_0/comp018green_out_paddrv_6T_PMOS_GROUP_0/PMOS_metal_stack_3/m1_n44_0#
+ comp018green_out_predrv_0/PDRIVE_X comp018green_out_predrv_3/NDRIVE_Y comp018green_out_predrv_0/PDRIVE_Y
+ comp018green_out_predrv_2/NDRIVE_X comp018green_out_paddrv_24T_0/comp018green_out_paddrv_6T_NMOS_GROUP_0/nmos_metal_stack_3/m1_n44_0#
+ comp018green_out_predrv_0/PDRIVE_X comp018green_out_paddrv_24T_0/comp018green_out_paddrv_6T_PMOS_GROUP_0/PMOS_metal_stack_4/m1_n44_0#
+ comp018green_out_predrv_1/PDRIVE_X comp018green_out_predrv_3/PDRIVE_X comp018green_out_predrv_2/PDRIVE_X
+ comp018green_out_paddrv_24T_0/comp018green_out_paddrv_6T_PMOS_GROUP_0/w_0_n878#
+ comp018green_out_predrv_2/PDRIVE_X comp018green_out_paddrv_24T_0/comp018green_out_paddrv_6T_PMOS_GROUP_0/PMOS_metal_stack_5/m1_n44_0#
+ comp018green_out_predrv_3/NDRIVE_X comp018green_out_predrv_2/NDRIVE_Y comp018green_out_predrv_1/PDRIVE_X
+ comp018green_out_predrv_0/NDRIVE_X comp018green_out_predrv_0/NDRIVE_Y comp018green_out_predrv_1/NDRIVE_Y
+ comp018green_out_predrv_1/NDRIVE_X comp018green_out_predrv_3/PDRIVE_X comp018green_out_paddrv_24T_0/comp018green_out_paddrv_6T_NMOS_GROUP_0/nmos_metal_stack_1/m1_n44_0#
+ comp018green_out_paddrv_24T_0/comp018green_out_paddrv_6T_PMOS_GROUP_0/PMOS_metal_stack_6/m1_n44_0#
+ comp018green_out_paddrv_24T_0/comp018green_out_paddrv_6T_PMOS_GROUP_0/PMOS_metal_stack_2/m1_n44_0#
+ comp018green_out_predrv_3/PDRIVE_Y comp018green_out_predrv_3/DVDD comp018green_out_predrv_2/PDRIVE_Y
+ PAD comp018green_out_paddrv_24T_0/comp018green_out_paddrv_6T_NMOS_GROUP_0/nmos_metal_stack_2/m1_n44_0#
+ comp018green_sigbuf_1_0/VSS comp018green_out_paddrv_24T
Xcomp018green_sigbuf_1_0 comp018green_sigbuf_1_0/Z SL comp018green_sigbuf_1_0/ZB comp018green_sigbuf_1_0/DVDD
+ comp018green_sigbuf_1_0/VDD comp018green_sigbuf_1_0/VSS comp018green_sigbuf_1
Xcomp018green_out_predrv_0 comp018green_sigbuf_1_0/Z comp018green_sigbuf_1_0/ZB comp018green_out_predrv_0/NDRIVE_X
+ comp018green_out_predrv_0/ENB comp018green_out_predrv_3/A comp018green_out_predrv_0/NDRIVE_Y
+ comp018green_out_predrv_0/PDRIVE_Y comp018green_out_predrv_0/PDRIVE_X comp018green_out_predrv_0/EN
+ comp018green_out_predrv_3/DVDD comp018green_sigbuf_1_0/VSS comp018green_out_predrv
Xcomp018green_out_predrv_1 comp018green_sigbuf_1_0/Z comp018green_sigbuf_1_0/ZB comp018green_out_predrv_1/NDRIVE_X
+ comp018green_out_predrv_1/ENB comp018green_out_predrv_3/A comp018green_out_predrv_1/NDRIVE_Y