* Copyright 2020 The SkyWater PDK Authors
*
* Licensed under the Apache License, Version 2.0 (the "License");
* you may not use this file except in compliance with the License.
* You may obtain a copy of the License at
*
*     https://www.apache.org/licenses/LICENSE-2.0
*
* Unless required by applicable law or agreed to in writing, software
* distributed under the License is distributed on an "AS IS" BASIS,
* WITHOUT WARRANTIES OR CONDITIONS OF ANY KIND, either express or implied.
* See the License for the specific language governing permissions and
* limitations under the License.
*
* SPDX-License-Identifier: Apache-2.0

.SUBCKT sky130_fd_sc_hdll__a2bb2o_1 A1_N A2_N B1 B2 VGND VNB VPB VPWR X
*.PININFO A1_N:I A2_N:I B1:I B2:I VGND:I VNB:I VPB:I VPWR:I X:O
MMIN2 X y VGND VNB nfet_01v8 m=1 w=0.65 l=0.15 mult=1 sa=0.265
+ sb=0.265 sd=0.28 topography=normal area=0.063 perim=1.14
MMNnor0 inor A1_N VGND VNB nfet_01v8 m=1 w=0.42 l=0.15 mult=1 sa=0.265
+ sb=0.265 sd=0.28 topography=normal area=0.063 perim=1.14
MMNnor1 inor A2_N VGND VNB nfet_01v8 m=1 w=0.42 l=0.15 mult=1 sa=0.265
+ sb=0.265 sd=0.28 topography=normal area=0.063 perim=1.14
MMNaoi10 VGND B1 sndNB1 VNB nfet_01v8 m=1 w=0.42 l=0.15 mult=1
+ sa=0.265 sb=0.265 sd=0.28 topography=normal area=0.063 perim=1.14
MMNaoi11 sndNB1 B2 y VNB nfet_01v8 m=1 w=0.42 l=0.15 mult=1 sa=0.265
+ sb=0.265 sd=0.28 topography=normal area=0.063 perim=1.14
MMNaoi20 y inor VGND VNB nfet_01v8 m=1 w=0.42 l=0.15 mult=1 sa=0.265
+ sb=0.265 sd=0.28 topography=normal area=0.063 perim=1.14
MMPaoi20 y inor pmid VPB pfet_01v8_hvt m=1 w=0.42 l=0.18 mult=1
+ sa=0.265 sb=0.265 sd=0.28 topography=normal area=0.063 perim=1.14
MMIP2 X y VPWR VPB pfet_01v8_hvt m=1 w=1.0 l=0.18 mult=1 sa=0.265
+ sb=0.265 sd=0.28 topography=normal area=0.063 perim=1.14
MMPnor0 VPWR A1_N sndPA1N VPB pfet_01v8_hvt m=1 w=0.42 l=0.18 mult=1
+ sa=0.265 sb=0.265 sd=0.28 topography=normal area=0.063 perim=1.14
MMPnor1 sndPA1N A2_N inor VPB pfet_01v8_hvt m=1 w=0.42 l=0.18 mult=1
+ sa=0.265 sb=0.265 sd=0.28 topography=normal area=0.063 perim=1.14
MMPaoi10 pmid B1 VPWR VPB pfet_01v8_hvt m=1 w=0.42 l=0.18 mult=1
+ sa=0.265 sb=0.265 sd=0.28 topography=normal area=0.063 perim=1.14
MMPaoi11 pmid B2 VPWR VPB pfet_01v8_hvt m=1 w=0.42 l=0.18 mult=1
+ sa=0.265 sb=0.265 sd=0.28 topography=normal area=0.063 perim=1.14
.ENDS sky130_fd_sc_hdll__a2bb2o_1


******* EOF

* Copyright 2020 The SkyWater PDK Authors
*
* Licensed under the Apache License, Version 2.0 (the "License");
* you may not use this file except in compliance with the License.
* You may obtain a copy of the License at
*
*     https://www.apache.org/licenses/LICENSE-2.0
*
* Unless required by applicable law or agreed to in writing, software
* distributed under the License is distributed on an "AS IS" BASIS,
* WITHOUT WARRANTIES OR CONDITIONS OF ANY KIND, either express or implied.
* See the License for the specific language governing permissions and
* limitations under the License.
*
* SPDX-License-Identifier: Apache-2.0

.SUBCKT sky130_fd_sc_hdll__a2bb2o_2 A1_N A2_N B1 B2 VGND VNB VPB VPWR X
*.PININFO A1_N:I A2_N:I B1:I B2:I VGND:I VNB:I VPB:I VPWR:I X:O
MMIN2 X y VGND VNB nfet_01v8 m=2 w=0.65 l=0.15 mult=1 sa=0.265
+ sb=0.265 sd=0.28 topography=normal area=0.063 perim=1.14
MMNnor0 inor A1_N VGND VNB nfet_01v8 m=1 w=0.42 l=0.15 mult=1 sa=0.265
+ sb=0.265 sd=0.28 topography=normal area=0.063 perim=1.14
MMNnor1 inor A2_N VGND VNB nfet_01v8 m=1 w=0.42 l=0.15 mult=1 sa=0.265
+ sb=0.265 sd=0.28 topography=normal area=0.063 perim=1.14
MMNaoi10 VGND B1 sndNB1 VNB nfet_01v8 m=1 w=0.42 l=0.15 mult=1
+ sa=0.265 sb=0.265 sd=0.28 topography=normal area=0.063 perim=1.14
MMNaoi11 sndNB1 B2 y VNB nfet_01v8 m=1 w=0.42 l=0.15 mult=1 sa=0.265
+ sb=0.265 sd=0.28 topography=normal area=0.063 perim=1.14
MMNaoi20 y inor VGND VNB nfet_01v8 m=1 w=0.42 l=0.15 mult=1 sa=0.265
+ sb=0.265 sd=0.28 topography=normal area=0.063 perim=1.14
MMPaoi20 y inor pmid VPB pfet_01v8_hvt m=1 w=0.64 l=0.18 mult=1
+ sa=0.265 sb=0.265 sd=0.28 topography=normal area=0.063 perim=1.14
MMIP2 X y VPWR VPB pfet_01v8_hvt m=2 w=1.0 l=0.18 mult=1 sa=0.265
+ sb=0.265 sd=0.28 topography=normal area=0.063 perim=1.14
MMPnor0 VPWR A1_N sndPA1N VPB pfet_01v8_hvt m=1 w=0.64 l=0.18 mult=1
+ sa=0.265 sb=0.265 sd=0.28 topography=normal area=0.063 perim=1.14
MMPnor1 sndPA1N A2_N inor VPB pfet_01v8_hvt m=1 w=0.64 l=0.18 mult=1
+ sa=0.265 sb=0.265 sd=0.28 topography=normal area=0.063 perim=1.14
MMPaoi10 pmid B1 VPWR VPB pfet_01v8_hvt m=1 w=0.64 l=0.18 mult=1
+ sa=0.265 sb=0.265 sd=0.28 topography=normal area=0.063 perim=1.14
MMPaoi11 pmid B2 VPWR VPB pfet_01v8_hvt m=1 w=0.64 l=0.18 mult=1
+ sa=0.265 sb=0.265 sd=0.28 topography=normal area=0.063 perim=1.14
.ENDS sky130_fd_sc_hdll__a2bb2o_2


******* EOF

* Copyright 2020 The SkyWater PDK Authors
*
* Licensed under the Apache License, Version 2.0 (the "License");
* you may not use this file except in compliance with the License.
* You may obtain a copy of the License at
*
*     https://www.apache.org/licenses/LICENSE-2.0
*
* Unless required by applicable law or agreed to in writing, software
* distributed under the License is distributed on an "AS IS" BASIS,
* WITHOUT WARRANTIES OR CONDITIONS OF ANY KIND, either express or implied.
* See the License for the specific language governing permissions and
* limitations under the License.
*
* SPDX-License-Identifier: Apache-2.0

.SUBCKT sky130_fd_sc_hdll__a2bb2o_4 A1_N A2_N B1 B2 VGND VNB VPB VPWR X
*.PININFO A1_N:I A2_N:I B1:I B2:I VGND:I VNB:I VPB:I VPWR:I X:O
MMIN2 X y VGND VNB nfet_01v8 m=4 w=0.65 l=0.15 mult=1 sa=0.265
+ sb=0.265 sd=0.28 topography=normal area=0.063 perim=1.14
MMNnor0 inor A1_N VGND VNB nfet_01v8 m=2 w=0.65 l=0.15 mult=1 sa=0.265
+ sb=0.265 sd=0.28 topography=normal area=0.063 perim=1.14
MMNnor1 inor A2_N VGND VNB nfet_01v8 m=2 w=0.65 l=0.15 mult=1 sa=0.265
+ sb=0.265 sd=0.28 topography=normal area=0.063 perim=1.14
MMNaoi10 VGND B1 sndNB1 VNB nfet_01v8 m=2 w=0.65 l=0.15 mult=1
+ sa=0.265 sb=0.265 sd=0.28 topography=normal area=0.063 perim=1.14
MMNaoi11 sndNB1 B2 y VNB nfet_01v8 m=2 w=0.65 l=0.15 mult=1 sa=0.265
+ sb=0.265 sd=0.28 topography=normal area=0.063 perim=1.14
MMNaoi20 y inor VGND VNB nfet_01v8 m=2 w=0.65 l=0.15 mult=1 sa=0.265
+ sb=0.265 sd=0.28 topography=normal area=0.063 perim=1.14
MMPaoi20 y inor pmid VPB pfet_01v8_hvt m=2 w=1.0 l=0.18 mult=1
+ sa=0.265 sb=0.265 sd=0.28 topography=normal area=0.063 perim=1.14
MMIP2 X y VPWR VPB pfet_01v8_hvt m=4 w=1.0 l=0.18 mult=1 sa=0.265
+ sb=0.265 sd=0.28 topography=normal area=0.063 perim=1.14
MMPnor0 VPWR A1_N sndPA1N VPB pfet_01v8_hvt m=2 w=1.0 l=0.18 mult=1
+ sa=0.265 sb=0.265 sd=0.28 topography=normal area=0.063 perim=1.14
MMPnor1 sndPA1N A2_N inor VPB pfet_01v8_hvt m=2 w=1.0 l=0.18 mult=1
+ sa=0.265 sb=0.265 sd=0.28 topography=normal area=0.063 perim=1.14
MMPaoi10 pmid B1 VPWR VPB pfet_01v8_hvt m=2 w=1.0 l=0.18 mult=1
+ sa=0.265 sb=0.265 sd=0.28 topography=normal area=0.063 perim=1.14
MMPaoi11 pmid B2 VPWR VPB pfet_01v8_hvt m=2 w=1.0 l=0.18 mult=1
+ sa=0.265 sb=0.265 sd=0.28 topography=normal area=0.063 perim=1.14
.ENDS sky130_fd_sc_hdll__a2bb2o_4


******* EOF

* Copyright 2020 The SkyWater PDK Authors
*
* Licensed under the Apache License, Version 2.0 (the "License");
* you may not use this file except in compliance with the License.
* You may obtain a copy of the License at
*
*     https://www.apache.org/licenses/LICENSE-2.0
*
* Unless required by applicable law or agreed to in writing, software
* distributed under the License is distributed on an "AS IS" BASIS,
* WITHOUT WARRANTIES OR CONDITIONS OF ANY KIND, either express or implied.
* See the License for the specific language governing permissions and
* limitations under the License.
*
* SPDX-License-Identifier: Apache-2.0

.SUBCKT sky130_fd_sc_hdll__a2bb2oi_1 A1_N A2_N B1 B2 VGND VNB VPB VPWR Y
*.PININFO A1_N:I A2_N:I B1:I B2:I VGND:I VNB:I VPB:I VPWR:I Y:O
MMNnor0 inor A1_N VGND VNB nfet_01v8 m=1 w=0.65 l=0.15 mult=1 sa=0.265
+ sb=0.265 sd=0.28 topography=normal area=0.063 perim=1.14
MMNnor1 inor A2_N VGND VNB nfet_01v8 m=1 w=0.65 l=0.15 mult=1 sa=0.265
+ sb=0.265 sd=0.28 topography=normal area=0.063 perim=1.14
MMNaoi10 VGND B1 sndNB1 VNB nfet_01v8 m=1 w=0.65 l=0.15 mult=1
+ sa=0.265 sb=0.265 sd=0.28 topography=normal area=0.063 perim=1.14
MMNaoi11 sndNB1 B2 Y VNB nfet_01v8 m=1 w=0.65 l=0.15 mult=1 sa=0.265
+ sb=0.265 sd=0.28 topography=normal area=0.063 perim=1.14
MMNaoi20 Y inor VGND VNB nfet_01v8 m=1 w=0.65 l=0.15 mult=1 sa=0.265
+ sb=0.265 sd=0.28 topography=normal area=0.063 perim=1.14
MMPnor0 VPWR A1_N sndPA1N VPB pfet_01v8_hvt m=1 w=1.0 l=0.18 mult=1
+ sa=0.265 sb=0.265 sd=0.28 topography=normal area=0.063 perim=1.14
MMPnor1 sndPA1N A2_N inor VPB pfet_01v8_hvt m=1 w=1.0 l=0.18 mult=1
+ sa=0.265 sb=0.265 sd=0.28 topography=normal area=0.063 perim=1.14
MMPaoi10 pmid B1 VPWR VPB pfet_01v8_hvt m=1 w=1.0 l=0.18 mult=1
+ sa=0.265 sb=0.265 sd=0.28 topography=normal area=0.063 perim=1.14
MMPaoi11 pmid B2 VPWR VPB pfet_01v8_hvt m=1 w=1.0 l=0.18 mult=1
+ sa=0.265 sb=0.265 sd=0.28 topography=normal area=0.063 perim=1.14
MMPaoi20 Y inor pmid VPB pfet_01v8_hvt m=1 w=1.0 l=0.18 mult=1
+ sa=0.265 sb=0.265 sd=0.28 topography=normal area=0.063 perim=1.14
.ENDS sky130_fd_sc_hdll__a2bb2oi_1


******* EOF

* Copyright 2020 The SkyWater PDK Authors
*
* Licensed under the Apache License, Version 2.0 (the "License");
* you may not use this file except in compliance with the License.
* You may obtain a copy of the License at
*
*     https://www.apache.org/licenses/LICENSE-2.0
*
* Unless required by applicable law or agreed to in writing, software
* distributed under the License is distributed on an "AS IS" BASIS,
* WITHOUT WARRANTIES OR CONDITIONS OF ANY KIND, either express or implied.
* See the License for the specific language governing permissions and
* limitations under the License.
*
* SPDX-License-Identifier: Apache-2.0

.SUBCKT sky130_fd_sc_hdll__a2bb2oi_2 A1_N A2_N B1 B2 VGND VNB VPB VPWR Y
*.PININFO A1_N:I A2_N:I B1:I B2:I VGND:I VNB:I VPB:I VPWR:I Y:O
MMNnor0 inor A1_N VGND VNB nfet_01v8 m=2 w=0.65 l=0.15 mult=1 sa=0.265
+ sb=0.265 sd=0.28 topography=normal area=0.063 perim=1.14
MMNnor1 inor A2_N VGND VNB nfet_01v8 m=2 w=0.65 l=0.15 mult=1 sa=0.265
+ sb=0.265 sd=0.28 topography=normal area=0.063 perim=1.14
MMNaoi10 VGND B1 sndNB1 VNB nfet_01v8 m=2 w=0.65 l=0.15 mult=1
+ sa=0.265 sb=0.265 sd=0.28 topography=normal area=0.063 perim=1.14
MMNaoi11 sndNB1 B2 Y VNB nfet_01v8 m=2 w=0.65 l=0.15 mult=1 sa=0.265
+ sb=0.265 sd=0.28 topography=normal area=0.063 perim=1.14
MMNaoi20 Y inor VGND VNB nfet_01v8 m=2 w=0.65 l=0.15 mult=1 sa=0.265
+ sb=0.265 sd=0.28 topography=normal area=0.063 perim=1.14
MMPnor0 VPWR A1_N sndPA1N VPB pfet_01v8_hvt m=2 w=1.0 l=0.18 mult=1
+ sa=0.265 sb=0.265 sd=0.28 topography=normal area=0.063 perim=1.14
MMPnor1 sndPA1N A2_N inor VPB pfet_01v8_hvt m=2 w=1.0 l=0.18 mult=1
+ sa=0.265 sb=0.265 sd=0.28 topography=normal area=0.063 perim=1.14
MMPaoi10 pmid B1 VPWR VPB pfet_01v8_hvt m=2 w=1.0 l=0.18 mult=1
+ sa=0.265 sb=0.265 sd=0.28 topography=normal area=0.063 perim=1.14
MMPaoi11 pmid B2 VPWR VPB pfet_01v8_hvt m=2 w=1.0 l=0.18 mult=1
+ sa=0.265 sb=0.265 sd=0.28 topography=normal area=0.063 perim=1.14
MMPaoi20 Y inor pmid VPB pfet_01v8_hvt m=2 w=1.0 l=0.18 mult=1
+ sa=0.265 sb=0.265 sd=0.28 topography=normal area=0.063 perim=1.14
.ENDS sky130_fd_sc_hdll__a2bb2oi_2


******* EOF

* Copyright 2020 The SkyWater PDK Authors
*
* Licensed under the Apache License, Version 2.0 (the "License");
* you may not use this file except in compliance with the License.
* You may obtain a copy of the License at
*
*     https://www.apache.org/licenses/LICENSE-2.0
*
* Unless required by applicable law or agreed to in writing, software
* distributed under the License is distributed on an "AS IS" BASIS,
* WITHOUT WARRANTIES OR CONDITIONS OF ANY KIND, either express or implied.
* See the License for the specific language governing permissions and
* limitations under the License.
*
* SPDX-License-Identifier: Apache-2.0

.SUBCKT sky130_fd_sc_hdll__a2bb2oi_4 A1_N A2_N B1 B2 VGND VNB VPB VPWR Y
*.PININFO A1_N:I A2_N:I B1:I B2:I VGND:I VNB:I VPB:I VPWR:I Y:O
MMNnor0 inor A1_N VGND VNB nfet_01v8 m=4 w=0.65 l=0.15 mult=1 sa=0.265
+ sb=0.265 sd=0.28 topography=normal area=0.063 perim=1.14
MMNnor1 inor A2_N VGND VNB nfet_01v8 m=4 w=0.65 l=0.15 mult=1 sa=0.265
+ sb=0.265 sd=0.28 topography=normal area=0.063 perim=1.14
MMNaoi10 VGND B1 sndNB1 VNB nfet_01v8 m=4 w=0.65 l=0.15 mult=1
+ sa=0.265 sb=0.265 sd=0.28 topography=normal area=0.063 perim=1.14
MMNaoi11 sndNB1 B2 Y VNB nfet_01v8 m=4 w=0.65 l=0.15 mult=1 sa=0.265
+ sb=0.265 sd=0.28 topography=normal area=0.063 perim=1.14
MMNaoi20 Y inor VGND VNB nfet_01v8 m=4 w=0.65 l=0.15 mult=1 sa=0.265
+ sb=0.265 sd=0.28 topography=normal area=0.063 perim=1.14
MMPnor0 VPWR A1_N sndPA1N VPB pfet_01v8_hvt m=4 w=1.0 l=0.18 mult=1
+ sa=0.265 sb=0.265 sd=0.28 topography=normal area=0.063 perim=1.14
MMPnor1 sndPA1N A2_N inor VPB pfet_01v8_hvt m=4 w=1.0 l=0.18 mult=1
+ sa=0.265 sb=0.265 sd=0.28 topography=normal area=0.063 perim=1.14
MMPaoi10 pmid B1 VPWR VPB pfet_01v8_hvt m=4 w=1.0 l=0.18 mult=1
+ sa=0.265 sb=0.265 sd=0.28 topography=normal area=0.063 perim=1.14
MMPaoi11 pmid B2 VPWR VPB pfet_01v8_hvt m=4 w=1.0 l=0.18 mult=1
+ sa=0.265 sb=0.265 sd=0.28 topography=normal area=0.063 perim=1.14
MMPaoi20 Y inor pmid VPB pfet_01v8_hvt m=4 w=1.0 l=0.18 mult=1
+ sa=0.265 sb=0.265 sd=0.28 topography=normal area=0.063 perim=1.14
.ENDS sky130_fd_sc_hdll__a2bb2oi_4


******* EOF

* Copyright 2020 The SkyWater PDK Authors
*
* Licensed under the Apache License, Version 2.0 (the "License");
* you may not use this file except in compliance with the License.
* You may obtain a copy of the License at
*
*     https://www.apache.org/licenses/LICENSE-2.0
*
* Unless required by applicable law or agreed to in writing, software
* distributed under the License is distributed on an "AS IS" BASIS,
* WITHOUT WARRANTIES OR CONDITIONS OF ANY KIND, either express or implied.
* See the License for the specific language governing permissions and
* limitations under the License.
*
* SPDX-License-Identifier: Apache-2.0

.SUBCKT sky130_fd_sc_hdll__a21bo_1 A1 A2 B1_N VGND VNB VPB VPWR X
*.PININFO A1:I A2:I B1_N:I VGND:I VNB:I VPB:I VPWR:I X:O
MMPA0 pndA A1 VPWR VPB pfet_01v8_hvt m=1 w=1.0 l=0.18 mult=1 sa=0.265
+ sb=0.265 sd=0.28 topography=normal area=0.063 perim=1.14
MMPA1 pndA A2 VPWR VPB pfet_01v8_hvt m=1 w=1.0 l=0.18 mult=1 sa=0.265
+ sb=0.265 sd=0.28 topography=normal area=0.063 perim=1.14
MMPB0 y B1 pndA VPB pfet_01v8_hvt m=1 w=1.0 l=0.18 mult=1 sa=0.265
+ sb=0.265 sd=0.28 topography=normal area=0.063 perim=1.14
MMIPB1N B1 B1_N VPWR VPB pfet_01v8_hvt m=1 w=0.42 l=0.18 mult=1
+ sa=0.265 sb=0.265 sd=0.28 topography=normal area=0.063 perim=1.14
MMIPX X y VPWR VPB pfet_01v8_hvt m=1 w=1.0 l=0.18 mult=1 sa=0.265
+ sb=0.265 sd=0.28 topography=normal area=0.063 perim=1.14
MMNA0 y A1 sndA1 VNB nfet_01v8 m=1 w=0.65 l=0.15 mult=1 sa=0.265
+ sb=0.265 sd=0.28 topography=normal area=0.063 perim=1.14
MMNA1 sndA1 A2 VGND VNB nfet_01v8 m=1 w=0.65 l=0.15 mult=1 sa=0.265
+ sb=0.265 sd=0.28 topography=normal area=0.063 perim=1.14
MMNB0 y B1 VGND VNB nfet_01v8 m=1 w=0.65 l=0.15 mult=1 sa=0.265
+ sb=0.265 sd=0.28 topography=normal area=0.063 perim=1.14
MMINB1N B1 B1_N VGND VNB nfet_01v8 m=1 w=0.42 l=0.15 mult=1 sa=0.265
+ sb=0.265 sd=0.28 topography=normal area=0.063 perim=1.14
MMINX X y VGND VNB nfet_01v8 m=1 w=0.65 l=0.15 mult=1 sa=0.265
+ sb=0.265 sd=0.28 topography=normal area=0.063 perim=1.14
.ENDS sky130_fd_sc_hdll__a21bo_1


******* EOF

* Copyright 2020 The SkyWater PDK Authors
*
* Licensed under the Apache License, Version 2.0 (the "License");
* you may not use this file except in compliance with the License.
* You may obtain a copy of the License at
*
*     https://www.apache.org/licenses/LICENSE-2.0
*
* Unless required by applicable law or agreed to in writing, software
* distributed under the License is distributed on an "AS IS" BASIS,
* WITHOUT WARRANTIES OR CONDITIONS OF ANY KIND, either express or implied.
* See the License for the specific language governing permissions and
* limitations under the License.
*
* SPDX-License-Identifier: Apache-2.0

.SUBCKT sky130_fd_sc_hdll__a21bo_2 A1 A2 B1_N VGND VNB VPB VPWR X
*.PININFO A1:I A2:I B1_N:I VGND:I VNB:I VPB:I VPWR:I X:O
MMPA0 pndA A1 VPWR VPB pfet_01v8_hvt m=1 w=1.0 l=0.18 mult=1 sa=0.265
+ sb=0.265 sd=0.28 topography=normal area=0.063 perim=1.14
MMPA1 pndA A2 VPWR VPB pfet_01v8_hvt m=1 w=1.0 l=0.18 mult=1 sa=0.265
+ sb=0.265 sd=0.28 topography=normal area=0.063 perim=1.14
MMPB0 y B1 pndA VPB pfet_01v8_hvt m=1 w=1.0 l=0.18 mult=1 sa=0.265
+ sb=0.265 sd=0.28 topography=normal area=0.063 perim=1.14
MMIPB1N B1 B1_N VPWR VPB pfet_01v8_hvt m=1 w=0.42 l=0.18 mult=1
+ sa=0.265 sb=0.265 sd=0.28 topography=normal area=0.063 perim=1.14
MMIPX X y VPWR VPB pfet_01v8_hvt m=2 w=1.0 l=0.18 mult=1 sa=0.265
+ sb=0.265 sd=0.28 topography=normal area=0.063 perim=1.14
MMNA0 y A1 sndA1 VNB nfet_01v8 m=1 w=0.65 l=0.15 mult=1 sa=0.265
+ sb=0.265 sd=0.28 topography=normal area=0.063 perim=1.14
MMNA1 sndA1 A2 VGND VNB nfet_01v8 m=1 w=0.65 l=0.15 mult=1 sa=0.265
+ sb=0.265 sd=0.28 topography=normal area=0.063 perim=1.14
MMNB0 y B1 VGND VNB nfet_01v8 m=1 w=0.65 l=0.15 mult=1 sa=0.265
+ sb=0.265 sd=0.28 topography=normal area=0.063 perim=1.14
MMINB1N B1 B1_N VGND VNB nfet_01v8 m=1 w=0.42 l=0.15 mult=1 sa=0.265
+ sb=0.265 sd=0.28 topography=normal area=0.063 perim=1.14
MMINX X y VGND VNB nfet_01v8 m=2 w=0.65 l=0.15 mult=1 sa=0.265
+ sb=0.265 sd=0.28 topography=normal area=0.063 perim=1.14
.ENDS sky130_fd_sc_hdll__a21bo_2


******* EOF

* Copyright 2020 The SkyWater PDK Authors
*
* Licensed under the Apache License, Version 2.0 (the "License");
* you may not use this file except in compliance with the License.
* You may obtain a copy of the License at
*
*     https://www.apache.org/licenses/LICENSE-2.0
*
* Unless required by applicable law or agreed to in writing, software
* distributed under the License is distributed on an "AS IS" BASIS,
* WITHOUT WARRANTIES OR CONDITIONS OF ANY KIND, either express or implied.
* See the License for the specific language governing permissions and
* limitations under the License.
*
* SPDX-License-Identifier: Apache-2.0

.SUBCKT sky130_fd_sc_hdll__a21bo_4 A1 A2 B1_N VGND VNB VPB VPWR X
*.PININFO A1:I A2:I B1_N:I VGND:I VNB:I VPB:I VPWR:I X:O
MMPA0 pndA A1 VPWR VPB pfet_01v8_hvt m=2 w=1.0 l=0.18 mult=1 sa=0.265
+ sb=0.265 sd=0.28 topography=normal area=0.063 perim=1.14
MMPA1 pndA A2 VPWR VPB pfet_01v8_hvt m=2 w=1.0 l=0.18 mult=1 sa=0.265
+ sb=0.265 sd=0.28 topography=normal area=0.063 perim=1.14
MMPB0 y B1 pndA VPB pfet_01v8_hvt m=2 w=1.0 l=0.18 mult=1 sa=0.265
+ sb=0.265 sd=0.28 topography=normal area=0.063 perim=1.14
MMIPB1N B1 B1_N VPWR VPB pfet_01v8_hvt m=1 w=1.0 l=0.18 mult=1
+ sa=0.265 sb=0.265 sd=0.28 topography=normal area=0.063 perim=1.14
MMIPX X y VPWR VPB pfet_01v8_hvt m=4 w=1.0 l=0.18 mult=1 sa=0.265
+ sb=0.265 sd=0.28 topography=normal area=0.063 perim=1.14
MMNA0 y A1 sndA1 VNB nfet_01v8 m=2 w=0.65 l=0.15 mult=1 sa=0.265
+ sb=0.265 sd=0.28 topography=normal area=0.063 perim=1.14
MMNA1 sndA1 A2 VGND VNB nfet_01v8 m=2 w=0.65 l=0.15 mult=1 sa=0.265
+ sb=0.265 sd=0.28 topography=normal area=0.063 perim=1.14
MMNB0 y B1 VGND VNB nfet_01v8 m=2 w=0.65 l=0.15 mult=1 sa=0.265
+ sb=0.265 sd=0.28 topography=normal area=0.063 perim=1.14
MMINB1N B1 B1_N VGND VNB nfet_01v8 m=1 w=0.65 l=0.15 mult=1 sa=0.265
+ sb=0.265 sd=0.28 topography=normal area=0.063 perim=1.14
MMINX X y VGND VNB nfet_01v8 m=4 w=0.65 l=0.15 mult=1 sa=0.265
+ sb=0.265 sd=0.28 topography=normal area=0.063 perim=1.14
.ENDS sky130_fd_sc_hdll__a21bo_4


******* EOF

* Copyright 2020 The SkyWater PDK Authors
*
* Licensed under the Apache License, Version 2.0 (the "License");
* you may not use this file except in compliance with the License.
* You may obtain a copy of the License at
*
*     https://www.apache.org/licenses/LICENSE-2.0
*
* Unless required by applicable law or agreed to in writing, software
* distributed under the License is distributed on an "AS IS" BASIS,
* WITHOUT WARRANTIES OR CONDITIONS OF ANY KIND, either express or implied.
* See the License for the specific language governing permissions and
* limitations under the License.
*
* SPDX-License-Identifier: Apache-2.0

.SUBCKT sky130_fd_sc_hdll__a21boi_1 A1 A2 B1_N VGND VNB VPB VPWR Y
*.PININFO A1:I A2:I B1_N:I VGND:I VNB:I VPB:I VPWR:I Y:O
MMPA0 net40 A1 VPWR VPB pfet_01v8_hvt m=1 w=1.0 l=0.18 mult=1 sa=0.265
+ sb=0.265 sd=0.28 topography=normal area=0.063 perim=1.14
MMPA1 net40 A2 VPWR VPB pfet_01v8_hvt m=1 w=1.0 l=0.18 mult=1 sa=0.265
+ sb=0.265 sd=0.28 topography=normal area=0.063 perim=1.14
MMPB0 Y B1 net40 VPB pfet_01v8_hvt m=1 w=1.0 l=0.18 mult=1 sa=0.265
+ sb=0.265 sd=0.28 topography=normal area=0.063 perim=1.14
MMIPB1N B1 B1_N VPWR VPB pfet_01v8_hvt m=1 w=0.42 l=0.18 mult=1
+ sa=0.265 sb=0.265 sd=0.28 topography=normal area=0.063 perim=1.14
MMNA0 Y A1 sndA1 VNB nfet_01v8 m=1 w=0.65 l=0.15 mult=1 sa=0.265
+ sb=0.265 sd=0.28 topography=normal area=0.063 perim=1.14
MMNA1 sndA1 A2 VGND VNB nfet_01v8 m=1 w=0.65 l=0.15 mult=1 sa=0.265
+ sb=0.265 sd=0.28 topography=normal area=0.063 perim=1.14
MMNB0 Y B1 VGND VNB nfet_01v8 m=1 w=0.65 l=0.15 mult=1 sa=0.265
+ sb=0.265 sd=0.28 topography=normal area=0.063 perim=1.14
MMINB1N B1 B1_N VGND VNB nfet_01v8 m=1 w=0.42 l=0.15 mult=1 sa=0.265
+ sb=0.265 sd=0.28 topography=normal area=0.063 perim=1.14
.ENDS sky130_fd_sc_hdll__a21boi_1


******* EOF

* Copyright 2020 The SkyWater PDK Authors
*
* Licensed under the Apache License, Version 2.0 (the "License");
* you may not use this file except in compliance with the License.
* You may obtain a copy of the License at
*
*     https://www.apache.org/licenses/LICENSE-2.0
*
* Unless required by applicable law or agreed to in writing, software
* distributed under the License is distributed on an "AS IS" BASIS,
* WITHOUT WARRANTIES OR CONDITIONS OF ANY KIND, either express or implied.
* See the License for the specific language governing permissions and
* limitations under the License.
*
* SPDX-License-Identifier: Apache-2.0

.SUBCKT sky130_fd_sc_hdll__a21boi_2 A1 A2 B1_N VGND VNB VPB VPWR Y
*.PININFO A1:I A2:I B1_N:I VGND:I VNB:I VPB:I VPWR:I Y:O
MMPA0 net40 A1 VPWR VPB pfet_01v8_hvt m=2 w=1.0 l=0.18 mult=1 sa=0.265
+ sb=0.265 sd=0.28 topography=normal area=0.063 perim=1.14
MMPA1 net40 A2 VPWR VPB pfet_01v8_hvt m=2 w=1.0 l=0.18 mult=1 sa=0.265
+ sb=0.265 sd=0.28 topography=normal area=0.063 perim=1.14
MMPB0 Y B1 net40 VPB pfet_01v8_hvt m=2 w=1.0 l=0.18 mult=1 sa=0.265
+ sb=0.265 sd=0.28 topography=normal area=0.063 perim=1.14
MMIPB1N B1 B1_N VPWR VPB pfet_01v8_hvt m=1 w=0.42 l=0.18 mult=1
+ sa=0.265 sb=0.265 sd=0.28 topography=normal area=0.063 perim=1.14
MMNA0 Y A1 sndA1 VNB nfet_01v8 m=2 w=0.65 l=0.15 mult=1 sa=0.265
+ sb=0.265 sd=0.28 topography=normal area=0.063 perim=1.14
MMNA1 sndA1 A2 VGND VNB nfet_01v8 m=2 w=0.65 l=0.15 mult=1 sa=0.265
+ sb=0.265 sd=0.28 topography=normal area=0.063 perim=1.14
MMNB0 Y B1 VGND VNB nfet_01v8 m=2 w=0.65 l=0.15 mult=1 sa=0.265
+ sb=0.265 sd=0.28 topography=normal area=0.063 perim=1.14
MMINB1N B1 B1_N VGND VNB nfet_01v8 m=1 w=0.42 l=0.15 mult=1 sa=0.265
+ sb=0.265 sd=0.28 topography=normal area=0.063 perim=1.14
.ENDS sky130_fd_sc_hdll__a21boi_2


******* EOF

* Copyright 2020 The SkyWater PDK Authors
*
* Licensed under the Apache License, Version 2.0 (the "License");
* you may not use this file except in compliance with the License.
* You may obtain a copy of the License at
*
*     https://www.apache.org/licenses/LICENSE-2.0
*
* Unless required by applicable law or agreed to in writing, software
* distributed under the License is distributed on an "AS IS" BASIS,
* WITHOUT WARRANTIES OR CONDITIONS OF ANY KIND, either express or implied.
* See the License for the specific language governing permissions and
* limitations under the License.
*
* SPDX-License-Identifier: Apache-2.0

.SUBCKT sky130_fd_sc_hdll__a21boi_4 A1 A2 B1_N VGND VNB VPB VPWR Y
*.PININFO A1:I A2:I B1_N:I VGND:I VNB:I VPB:I VPWR:I Y:O
MMPA0 net40 A1 VPWR VPB pfet_01v8_hvt m=4 w=1.0 l=0.18 mult=1 sa=0.265
+ sb=0.265 sd=0.28 topography=normal area=0.063 perim=1.14
MMPA1 net40 A2 VPWR VPB pfet_01v8_hvt m=4 w=1.0 l=0.18 mult=1 sa=0.265
+ sb=0.265 sd=0.28 topography=normal area=0.063 perim=1.14
MMPB0 Y B1 net40 VPB pfet_01v8_hvt m=4 w=1.0 l=0.18 mult=1 sa=0.265
+ sb=0.265 sd=0.28 topography=normal area=0.063 perim=1.14
MMIPB1N B1 B1_N VPWR VPB pfet_01v8_hvt m=1 w=1.0 l=0.18 mult=1
+ sa=0.265 sb=0.265 sd=0.28 topography=normal area=0.063 perim=1.14
MMNA0 Y A1 sndA1 VNB nfet_01v8 m=4 w=0.65 l=0.15 mult=1 sa=0.265
+ sb=0.265 sd=0.28 topography=normal area=0.063 perim=1.14
MMNA1 sndA1 A2 VGND VNB nfet_01v8 m=4 w=0.65 l=0.15 mult=1 sa=0.265
+ sb=0.265 sd=0.28 topography=normal area=0.063 perim=1.14
MMNB0 Y B1 VGND VNB nfet_01v8 m=4 w=0.65 l=0.15 mult=1 sa=0.265
+ sb=0.265 sd=0.28 topography=normal area=0.063 perim=1.14
MMINB1N B1 B1_N VGND VNB nfet_01v8 m=1 w=0.65 l=0.15 mult=1 sa=0.265
+ sb=0.265 sd=0.28 topography=normal area=0.063 perim=1.14
.ENDS sky130_fd_sc_hdll__a21boi_4


******* EOF

* Copyright 2020 The SkyWater PDK Authors
*
* Licensed under the Apache License, Version 2.0 (the "License");
* you may not use this file except in compliance with the License.
* You may obtain a copy of the License at
*
*     https://www.apache.org/licenses/LICENSE-2.0
*
* Unless required by applicable law or agreed to in writing, software
* distributed under the License is distributed on an "AS IS" BASIS,
* WITHOUT WARRANTIES OR CONDITIONS OF ANY KIND, either express or implied.
* See the License for the specific language governing permissions and
* limitations under the License.
*
* SPDX-License-Identifier: Apache-2.0

.SUBCKT sky130_fd_sc_hdll__a21o_1 A1 A2 B1 VGND VNB VPB VPWR X
*.PININFO A1:I A2:I B1:I VGND:I VNB:I VPB:I VPWR:I X:O
MMPA0 pndA A1 VPWR VPB pfet_01v8_hvt m=1 w=1.0 l=0.18 mult=1 sa=0.265
+ sb=0.265 sd=0.28 topography=normal area=0.063 perim=1.14
MMPA1 pndA A2 VPWR VPB pfet_01v8_hvt m=1 w=1.0 l=0.18 mult=1 sa=0.265
+ sb=0.265 sd=0.28 topography=normal area=0.063 perim=1.14
MMPB0 y B1 pndA VPB pfet_01v8_hvt m=1 w=1.0 l=0.18 mult=1 sa=0.265
+ sb=0.265 sd=0.28 topography=normal area=0.063 perim=1.14
MMIPX X y VPWR VPB pfet_01v8_hvt m=1 w=1.0 l=0.18 mult=1 sa=0.265
+ sb=0.265 sd=0.28 topography=normal area=0.063 perim=1.14
MMNA0 y A1 sndA1 VNB nfet_01v8 m=1 w=0.65 l=0.15 mult=1 sa=0.265
+ sb=0.265 sd=0.28 topography=normal area=0.063 perim=1.14
MMNA1 sndA1 A2 VGND VNB nfet_01v8 m=1 w=0.65 l=0.15 mult=1 sa=0.265
+ sb=0.265 sd=0.28 topography=normal area=0.063 perim=1.14
MMNB0 y B1 VGND VNB nfet_01v8 m=1 w=0.65 l=0.15 mult=1 sa=0.265
+ sb=0.265 sd=0.28 topography=normal area=0.063 perim=1.14
MMINX X y VGND VNB nfet_01v8 m=1 w=0.65 l=0.15 mult=1 sa=0.265
+ sb=0.265 sd=0.28 topography=normal area=0.063 perim=1.14
.ENDS sky130_fd_sc_hdll__a21o_1


******* EOF

* Copyright 2020 The SkyWater PDK Authors
*
* Licensed under the Apache License, Version 2.0 (the "License");
* you may not use this file except in compliance with the License.
* You may obtain a copy of the License at
*
*     https://www.apache.org/licenses/LICENSE-2.0
*
* Unless required by applicable law or agreed to in writing, software
* distributed under the License is distributed on an "AS IS" BASIS,
* WITHOUT WARRANTIES OR CONDITIONS OF ANY KIND, either express or implied.
* See the License for the specific language governing permissions and
* limitations under the License.
*
* SPDX-License-Identifier: Apache-2.0

.SUBCKT sky130_fd_sc_hdll__a21o_2 A1 A2 B1 VGND VNB VPB VPWR X
*.PININFO A1:I A2:I B1:I VGND:I VNB:I VPB:I VPWR:I X:O
MMPA0 pndA A1 VPWR VPB pfet_01v8_hvt m=1 w=1.0 l=0.18 mult=1 sa=0.265
+ sb=0.265 sd=0.28 topography=normal area=0.063 perim=1.14
MMPA1 pndA A2 VPWR VPB pfet_01v8_hvt m=1 w=1.0 l=0.18 mult=1 sa=0.265
+ sb=0.265 sd=0.28 topography=normal area=0.063 perim=1.14
MMPB0 y B1 pndA VPB pfet_01v8_hvt m=1 w=1.0 l=0.18 mult=1 sa=0.265
+ sb=0.265 sd=0.28 topography=normal area=0.063 perim=1.14
MMIPX X y VPWR VPB pfet_01v8_hvt m=2 w=1.0 l=0.18 mult=1 sa=0.265
+ sb=0.265 sd=0.28 topography=normal area=0.063 perim=1.14
MMNA0 y A1 sndA1 VNB nfet_01v8 m=1 w=0.65 l=0.15 mult=1 sa=0.265
+ sb=0.265 sd=0.28 topography=normal area=0.063 perim=1.14
MMNA1 sndA1 A2 VGND VNB nfet_01v8 m=1 w=0.65 l=0.15 mult=1 sa=0.265
+ sb=0.265 sd=0.28 topography=normal area=0.063 perim=1.14
MMNB0 y B1 VGND VNB nfet_01v8 m=1 w=0.65 l=0.15 mult=1 sa=0.265
+ sb=0.265 sd=0.28 topography=normal area=0.063 perim=1.14
MMINX X y VGND VNB nfet_01v8 m=2 w=0.65 l=0.15 mult=1 sa=0.265
+ sb=0.265 sd=0.28 topography=normal area=0.063 perim=1.14
.ENDS sky130_fd_sc_hdll__a21o_2


******* EOF

* Copyright 2020 The SkyWater PDK Authors
*
* Licensed under the Apache License, Version 2.0 (the "License");
* you may not use this file except in compliance with the License.
* You may obtain a copy of the License at
*
*     https://www.apache.org/licenses/LICENSE-2.0
*
* Unless required by applicable law or agreed to in writing, software
* distributed under the License is distributed on an "AS IS" BASIS,
* WITHOUT WARRANTIES OR CONDITIONS OF ANY KIND, either express or implied.
* See the License for the specific language governing permissions and
* limitations under the License.
*
* SPDX-License-Identifier: Apache-2.0

.SUBCKT sky130_fd_sc_hdll__a21o_4 A1 A2 B1 VGND VNB VPB VPWR X
*.PININFO A1:I A2:I B1:I VGND:I VNB:I VPB:I VPWR:I X:O
MMPA0 pndA A1 VPWR VPB pfet_01v8_hvt m=2 w=1.0 l=0.18 mult=1 sa=0.265
+ sb=0.265 sd=0.28 topography=normal area=0.063 perim=1.14
MMPA1 pndA A2 VPWR VPB pfet_01v8_hvt m=2 w=1.0 l=0.18 mult=1 sa=0.265
+ sb=0.265 sd=0.28 topography=normal area=0.063 perim=1.14
MMPB0 y B1 pndA VPB pfet_01v8_hvt m=2 w=1.0 l=0.18 mult=1 sa=0.265
+ sb=0.265 sd=0.28 topography=normal area=0.063 perim=1.14
MMIPX X y VPWR VPB pfet_01v8_hvt m=4 w=1.0 l=0.18 mult=1 sa=0.265