* NGSPICE file created from gf180mcu_fd_ip_sram__sram256x8m8wm1.ext - technology: gf180mcuA

.subckt dcap_103_novia_256x8m81 w_n203_44# a_n67_185# a_73_103#
X0 a_n67_185# a_73_103# a_n67_185# w_n203_44# pmos_3p3 w=2.275u l=2.365u
.ends

.subckt x018SRAM_cell1_256x8m81 a_n36_52# a_444_n42# a_246_342# a_246_712# m3_n36_330#
+ a_36_n42# w_n68_622# VSUBS
X0 a_126_298# a_n36_52# a_444_n42# VSUBS nmos_6p0 w=0.6u l=0.77u
X1 a_36_206# a_n36_52# a_36_n42# VSUBS nmos_6p0 w=0.6u l=0.77u
X2 a_246_712# a_126_298# a_36_206# w_n68_622# pmos_6p0 w=0.6u l=0.6u
X3 a_126_298# a_36_206# a_246_712# w_n68_622# pmos_6p0 w=0.6u l=0.6u
X4 a_246_342# a_126_298# a_36_206# VSUBS nmos_6p0 w=0.95u l=0.6u
X5 a_126_298# a_36_206# a_246_342# VSUBS nmos_6p0 w=0.95u l=0.6u
.ends

.subckt x018SRAM_cell1_2x_256x8m81 018SRAM_cell1_256x8m81_0/w_n68_622# 018SRAM_cell1_256x8m81_0/a_n36_52#
+ 018SRAM_cell1_256x8m81_1/w_n68_622# 018SRAM_cell1_256x8m81_1/a_n36_52# 018SRAM_cell1_256x8m81_1/m3_n36_330#
+ 018SRAM_cell1_256x8m81_0/m3_n36_330# 018SRAM_cell1_256x8m81_0/a_246_712# 018SRAM_cell1_256x8m81_0/a_246_342#
+ 018SRAM_cell1_256x8m81_1/a_444_n42# 018SRAM_cell1_256x8m81_1/a_246_712# 018SRAM_cell1_256x8m81_1/a_246_342#
+ 018SRAM_cell1_256x8m81_1/a_36_n42# VSUBS
X018SRAM_cell1_256x8m81_0 018SRAM_cell1_256x8m81_0/a_n36_52# 018SRAM_cell1_256x8m81_1/a_444_n42#
+ 018SRAM_cell1_256x8m81_0/a_246_342# 018SRAM_cell1_256x8m81_0/a_246_712# 018SRAM_cell1_256x8m81_0/m3_n36_330#
+ 018SRAM_cell1_256x8m81_1/a_36_n42# 018SRAM_cell1_256x8m81_0/w_n68_622# VSUBS x018SRAM_cell1_256x8m81
X018SRAM_cell1_256x8m81_1 018SRAM_cell1_256x8m81_1/a_n36_52# 018SRAM_cell1_256x8m81_1/a_444_n42#
+ 018SRAM_cell1_256x8m81_1/a_246_342# 018SRAM_cell1_256x8m81_1/a_246_712# 018SRAM_cell1_256x8m81_1/m3_n36_330#
+ 018SRAM_cell1_256x8m81_1/a_36_n42# 018SRAM_cell1_256x8m81_1/w_n68_622# VSUBS x018SRAM_cell1_256x8m81
.ends

.subckt Cell_array32x1_256x8m81 018SRAM_cell1_2x_256x8m81_7/018SRAM_cell1_256x8m81_1/a_246_342#
+ 018SRAM_cell1_2x_256x8m81_1/018SRAM_cell1_256x8m81_0/a_n36_52# 018SRAM_cell1_2x_256x8m81_1/018SRAM_cell1_256x8m81_1/a_246_342#
+ 018SRAM_cell1_2x_256x8m81_13/018SRAM_cell1_256x8m81_0/a_n36_52# 018SRAM_cell1_2x_256x8m81_8/018SRAM_cell1_256x8m81_0/a_246_712#
+ 018SRAM_cell1_2x_256x8m81_2/018SRAM_cell1_256x8m81_0/a_246_712# 018SRAM_cell1_2x_256x8m81_14/018SRAM_cell1_256x8m81_1/w_n68_622#
+ 018SRAM_cell1_2x_256x8m81_6/018SRAM_cell1_256x8m81_0/a_n36_52# 018SRAM_cell1_2x_256x8m81_11/018SRAM_cell1_256x8m81_1/a_n36_52#
+ 018SRAM_cell1_2x_256x8m81_11/018SRAM_cell1_256x8m81_1/a_246_342# 018SRAM_cell1_2x_256x8m81_4/018SRAM_cell1_256x8m81_1/a_n36_52#
+ 018SRAM_cell1_2x_256x8m81_12/018SRAM_cell1_256x8m81_0/a_246_712# 018SRAM_cell1_2x_256x8m81_8/018SRAM_cell1_256x8m81_0/a_246_342#
+ 018SRAM_cell1_2x_256x8m81_2/018SRAM_cell1_256x8m81_0/a_246_342# 018SRAM_cell1_2x_256x8m81_9/018SRAM_cell1_256x8m81_1/a_n36_52#
+ 018SRAM_cell1_2x_256x8m81_0/018SRAM_cell1_256x8m81_1/w_n68_622# 018SRAM_cell1_2x_256x8m81_0/018SRAM_cell1_256x8m81_0/m3_n36_330#
+ 018SRAM_cell1_2x_256x8m81_12/018SRAM_cell1_256x8m81_0/a_246_342# 018SRAM_cell1_2x_256x8m81_0/018SRAM_cell1_256x8m81_1/m3_n36_330#
+ 018SRAM_cell1_2x_256x8m81_1/018SRAM_cell1_256x8m81_0/m3_n36_330# 018SRAM_cell1_2x_256x8m81_8/018SRAM_cell1_256x8m81_1/a_246_342#
+ 018SRAM_cell1_2x_256x8m81_2/018SRAM_cell1_256x8m81_1/a_246_342# 018SRAM_cell1_2x_256x8m81_1/018SRAM_cell1_256x8m81_1/m3_n36_330#
+ 018SRAM_cell1_2x_256x8m81_1/018SRAM_cell1_256x8m81_0/w_n68_622# 018SRAM_cell1_2x_256x8m81_3/018SRAM_cell1_256x8m81_0/a_246_712#
+ 018SRAM_cell1_2x_256x8m81_9/018SRAM_cell1_256x8m81_0/a_246_712# 018SRAM_cell1_2x_256x8m81_10/018SRAM_cell1_256x8m81_0/a_n36_52#
+ 018SRAM_cell1_2x_256x8m81_2/018SRAM_cell1_256x8m81_0/m3_n36_330# 018SRAM_cell1_2x_256x8m81_6/018SRAM_cell1_256x8m81_0/w_n68_622#
+ 018SRAM_cell1_2x_256x8m81_0/018SRAM_cell1_256x8m81_0/w_n68_622# 018SRAM_cell1_2x_256x8m81_3/018SRAM_cell1_256x8m81_0/a_n36_52#
+ 018SRAM_cell1_2x_256x8m81_12/018SRAM_cell1_256x8m81_1/a_246_342# 018SRAM_cell1_2x_256x8m81_2/018SRAM_cell1_256x8m81_1/m3_n36_330#
+ 018SRAM_cell1_2x_256x8m81_15/018SRAM_cell1_256x8m81_0/a_n36_52# 018SRAM_cell1_2x_256x8m81_8/018SRAM_cell1_256x8m81_0/a_n36_52#
+ 018SRAM_cell1_2x_256x8m81_13/018SRAM_cell1_256x8m81_0/a_246_712# 018SRAM_cell1_2x_256x8m81_3/018SRAM_cell1_256x8m81_0/m3_n36_330#
+ 018SRAM_cell1_2x_256x8m81_9/018SRAM_cell1_256x8m81_0/a_246_342# 018SRAM_cell1_2x_256x8m81_1/018SRAM_cell1_256x8m81_1/a_n36_52#
+ 018SRAM_cell1_2x_256x8m81_3/018SRAM_cell1_256x8m81_0/a_246_342# 018SRAM_cell1_2x_256x8m81_13/018SRAM_cell1_256x8m81_1/a_n36_52#
+ 018SRAM_cell1_2x_256x8m81_3/018SRAM_cell1_256x8m81_1/m3_n36_330# 018SRAM_cell1_2x_256x8m81_6/018SRAM_cell1_256x8m81_1/a_n36_52#
+ 018SRAM_cell1_2x_256x8m81_4/018SRAM_cell1_256x8m81_0/m3_n36_330# 018SRAM_cell1_2x_256x8m81_13/018SRAM_cell1_256x8m81_0/a_246_342#
+ 018SRAM_cell1_2x_256x8m81_7/018SRAM_cell1_256x8m81_0/w_n68_622# 018SRAM_cell1_2x_256x8m81_4/018SRAM_cell1_256x8m81_1/m3_n36_330#
+ 018SRAM_cell1_2x_256x8m81_9/018SRAM_cell1_256x8m81_1/a_246_342# 018SRAM_cell1_2x_256x8m81_3/018SRAM_cell1_256x8m81_1/a_246_342#
+ 018SRAM_cell1_2x_256x8m81_5/018SRAM_cell1_256x8m81_0/m3_n36_330# 018SRAM_cell1_2x_256x8m81_4/018SRAM_cell1_256x8m81_0/a_246_712#
+ 018SRAM_cell1_2x_256x8m81_9/018SRAM_cell1_256x8m81_1/a_246_712# 018SRAM_cell1_2x_256x8m81_5/018SRAM_cell1_256x8m81_1/m3_n36_330#
+ 018SRAM_cell1_2x_256x8m81_11/018SRAM_cell1_256x8m81_0/w_n68_622# 018SRAM_cell1_2x_256x8m81_6/018SRAM_cell1_256x8m81_0/m3_n36_330#
+ 018SRAM_cell1_2x_256x8m81_13/018SRAM_cell1_256x8m81_1/a_246_342# 018SRAM_cell1_2x_256x8m81_0/018SRAM_cell1_256x8m81_0/a_n36_52#
+ 018SRAM_cell1_2x_256x8m81_6/018SRAM_cell1_256x8m81_1/m3_n36_330# 018SRAM_cell1_2x_256x8m81_12/018SRAM_cell1_256x8m81_0/a_n36_52#
+ 018SRAM_cell1_2x_256x8m81_4/018SRAM_cell1_256x8m81_0/a_246_342# 018SRAM_cell1_2x_256x8m81_5/018SRAM_cell1_256x8m81_0/a_n36_52#
+ 018SRAM_cell1_2x_256x8m81_7/018SRAM_cell1_256x8m81_0/m3_n36_330# 018SRAM_cell1_2x_256x8m81_10/018SRAM_cell1_256x8m81_1/a_n36_52#
+ 018SRAM_cell1_2x_256x8m81_7/018SRAM_cell1_256x8m81_1/m3_n36_330# 018SRAM_cell1_2x_256x8m81_3/018SRAM_cell1_256x8m81_1/a_n36_52#
+ 018SRAM_cell1_2x_256x8m81_14/018SRAM_cell1_256x8m81_0/a_246_342# 018SRAM_cell1_2x_256x8m81_15/018SRAM_cell1_256x8m81_1/a_n36_52#
+ 018SRAM_cell1_2x_256x8m81_8/018SRAM_cell1_256x8m81_0/w_n68_622# 018SRAM_cell1_2x_256x8m81_8/018SRAM_cell1_256x8m81_0/m3_n36_330#
+ 018SRAM_cell1_2x_256x8m81_14/018SRAM_cell1_256x8m81_0/a_246_712# 018SRAM_cell1_2x_256x8m81_8/018SRAM_cell1_256x8m81_1/a_n36_52#
+ 018SRAM_cell1_2x_256x8m81_8/018SRAM_cell1_256x8m81_1/m3_n36_330# 018SRAM_cell1_2x_256x8m81_4/018SRAM_cell1_256x8m81_1/a_246_342#
+ 018SRAM_cell1_2x_256x8m81_10/018SRAM_cell1_256x8m81_0/m3_n36_330# 018SRAM_cell1_2x_256x8m81_9/018SRAM_cell1_256x8m81_0/m3_n36_330#
+ 018SRAM_cell1_2x_256x8m81_5/018SRAM_cell1_256x8m81_0/a_246_712# 018SRAM_cell1_2x_256x8m81_9/018SRAM_cell1_256x8m81_1/m3_n36_330#
+ 018SRAM_cell1_2x_256x8m81_10/018SRAM_cell1_256x8m81_1/m3_n36_330# 018SRAM_cell1_2x_256x8m81_2/018SRAM_cell1_256x8m81_0/w_n68_622#
+ 018SRAM_cell1_2x_256x8m81_14/018SRAM_cell1_256x8m81_1/a_246_342# 018SRAM_cell1_2x_256x8m81_11/018SRAM_cell1_256x8m81_0/m3_n36_330#
+ 018SRAM_cell1_2x_256x8m81_14/018SRAM_cell1_256x8m81_1/a_246_712# 018SRAM_cell1_2x_256x8m81_5/018SRAM_cell1_256x8m81_0/a_246_342#
+ 018SRAM_cell1_2x_256x8m81_11/018SRAM_cell1_256x8m81_1/m3_n36_330# 018SRAM_cell1_2x_256x8m81_12/018SRAM_cell1_256x8m81_0/w_n68_622#
+ 018SRAM_cell1_2x_256x8m81_2/018SRAM_cell1_256x8m81_0/a_n36_52# 018SRAM_cell1_2x_256x8m81_12/018SRAM_cell1_256x8m81_0/m3_n36_330#
+ 018SRAM_cell1_2x_256x8m81_14/018SRAM_cell1_256x8m81_0/a_n36_52# 018SRAM_cell1_2x_256x8m81_15/018SRAM_cell1_256x8m81_0/a_246_342#
+ 018SRAM_cell1_2x_256x8m81_7/018SRAM_cell1_256x8m81_0/a_n36_52# 018SRAM_cell1_2x_256x8m81_0/018SRAM_cell1_256x8m81_1/a_n36_52#
+ 018SRAM_cell1_2x_256x8m81_12/018SRAM_cell1_256x8m81_1/m3_n36_330# 018SRAM_cell1_2x_256x8m81_0/018SRAM_cell1_256x8m81_1/a_246_712#
+ 018SRAM_cell1_2x_256x8m81_12/018SRAM_cell1_256x8m81_1/a_n36_52# 018SRAM_cell1_2x_256x8m81_13/018SRAM_cell1_256x8m81_0/m3_n36_330#
+ 018SRAM_cell1_2x_256x8m81_5/018SRAM_cell1_256x8m81_1/a_n36_52# 018SRAM_cell1_2x_256x8m81_5/018SRAM_cell1_256x8m81_1/a_246_342#
+ 018SRAM_cell1_2x_256x8m81_13/018SRAM_cell1_256x8m81_1/m3_n36_330# 018SRAM_cell1_2x_256x8m81_6/018SRAM_cell1_256x8m81_0/a_246_712#
+ 018SRAM_cell1_2x_256x8m81_14/018SRAM_cell1_256x8m81_0/m3_n36_330# 018SRAM_cell1_2x_256x8m81_9/018SRAM_cell1_256x8m81_0/w_n68_622#
+ 018SRAM_cell1_2x_256x8m81_3/018SRAM_cell1_256x8m81_0/w_n68_622# 018SRAM_cell1_2x_256x8m81_15/018SRAM_cell1_256x8m81_1/a_246_342#
+ 018SRAM_cell1_2x_256x8m81_14/018SRAM_cell1_256x8m81_1/m3_n36_330# 018SRAM_cell1_2x_256x8m81_1/018SRAM_cell1_256x8m81_0/a_246_712#
+ 018SRAM_cell1_2x_256x8m81_6/018SRAM_cell1_256x8m81_0/a_246_342# 018SRAM_cell1_2x_256x8m81_15/018SRAM_cell1_256x8m81_0/m3_n36_330#
+ 018SRAM_cell1_2x_256x8m81_9/018SRAM_cell1_256x8m81_1/a_444_n42# 018SRAM_cell1_2x_256x8m81_0/018SRAM_cell1_256x8m81_0/a_246_342#
+ 018SRAM_cell1_2x_256x8m81_0/018SRAM_cell1_256x8m81_0/a_246_712# 018SRAM_cell1_2x_256x8m81_13/018SRAM_cell1_256x8m81_0/w_n68_622#
+ 018SRAM_cell1_2x_256x8m81_15/018SRAM_cell1_256x8m81_1/m3_n36_330# 018SRAM_cell1_2x_256x8m81_9/018SRAM_cell1_256x8m81_1/w_n68_622#
+ 018SRAM_cell1_2x_256x8m81_10/018SRAM_cell1_256x8m81_0/a_246_342# 018SRAM_cell1_2x_256x8m81_11/018SRAM_cell1_256x8m81_0/a_n36_52#
+ 018SRAM_cell1_2x_256x8m81_4/018SRAM_cell1_256x8m81_0/w_n68_622# 018SRAM_cell1_2x_256x8m81_4/018SRAM_cell1_256x8m81_0/a_n36_52#
+ 018SRAM_cell1_2x_256x8m81_6/018SRAM_cell1_256x8m81_1/a_246_342# 018SRAM_cell1_2x_256x8m81_9/018SRAM_cell1_256x8m81_0/a_n36_52#
+ 018SRAM_cell1_2x_256x8m81_0/018SRAM_cell1_256x8m81_1/a_246_342# 018SRAM_cell1_2x_256x8m81_2/018SRAM_cell1_256x8m81_1/a_n36_52#
+ 018SRAM_cell1_2x_256x8m81_7/018SRAM_cell1_256x8m81_0/a_246_712# 018SRAM_cell1_2x_256x8m81_14/018SRAM_cell1_256x8m81_1/a_n36_52#
+ 018SRAM_cell1_2x_256x8m81_7/018SRAM_cell1_256x8m81_1/a_n36_52# 018SRAM_cell1_2x_256x8m81_10/018SRAM_cell1_256x8m81_1/a_246_342#
+ 018SRAM_cell1_2x_256x8m81_11/018SRAM_cell1_256x8m81_0/a_246_712# 018SRAM_cell1_2x_256x8m81_7/018SRAM_cell1_256x8m81_0/a_246_342#
+ 018SRAM_cell1_2x_256x8m81_1/018SRAM_cell1_256x8m81_0/a_246_342# 018SRAM_cell1_2x_256x8m81_14/018SRAM_cell1_256x8m81_0/w_n68_622#
+ 018SRAM_cell1_2x_256x8m81_11/018SRAM_cell1_256x8m81_0/a_246_342# 018SRAM_cell1_2x_256x8m81_5/018SRAM_cell1_256x8m81_0/w_n68_622#
+ VSUBS 018SRAM_cell1_2x_256x8m81_9/018SRAM_cell1_256x8m81_1/a_36_n42#
X018SRAM_cell1_2x_256x8m81_10 018SRAM_cell1_2x_256x8m81_9/018SRAM_cell1_256x8m81_1/w_n68_622#
+ 018SRAM_cell1_2x_256x8m81_10/018SRAM_cell1_256x8m81_0/a_n36_52# 018SRAM_cell1_2x_256x8m81_11/018SRAM_cell1_256x8m81_0/w_n68_622#
+ 018SRAM_cell1_2x_256x8m81_10/018SRAM_cell1_256x8m81_1/a_n36_52# 018SRAM_cell1_2x_256x8m81_10/018SRAM_cell1_256x8m81_1/m3_n36_330#
+ 018SRAM_cell1_2x_256x8m81_10/018SRAM_cell1_256x8m81_0/m3_n36_330# 018SRAM_cell1_2x_256x8m81_9/018SRAM_cell1_256x8m81_1/a_246_712#
+ 018SRAM_cell1_2x_256x8m81_10/018SRAM_cell1_256x8m81_0/a_246_342# 018SRAM_cell1_2x_256x8m81_9/018SRAM_cell1_256x8m81_1/a_444_n42#
+ 018SRAM_cell1_2x_256x8m81_11/018SRAM_cell1_256x8m81_0/a_246_712# 018SRAM_cell1_2x_256x8m81_10/018SRAM_cell1_256x8m81_1/a_246_342#
+ 018SRAM_cell1_2x_256x8m81_9/018SRAM_cell1_256x8m81_1/a_36_n42# VSUBS x018SRAM_cell1_2x_256x8m81
X018SRAM_cell1_2x_256x8m81_11 018SRAM_cell1_2x_256x8m81_11/018SRAM_cell1_256x8m81_0/w_n68_622#
+ 018SRAM_cell1_2x_256x8m81_11/018SRAM_cell1_256x8m81_0/a_n36_52# 018SRAM_cell1_2x_256x8m81_12/018SRAM_cell1_256x8m81_0/w_n68_622#
+ 018SRAM_cell1_2x_256x8m81_11/018SRAM_cell1_256x8m81_1/a_n36_52# 018SRAM_cell1_2x_256x8m81_11/018SRAM_cell1_256x8m81_1/m3_n36_330#
+ 018SRAM_cell1_2x_256x8m81_11/018SRAM_cell1_256x8m81_0/m3_n36_330# 018SRAM_cell1_2x_256x8m81_11/018SRAM_cell1_256x8m81_0/a_246_712#
+ 018SRAM_cell1_2x_256x8m81_11/018SRAM_cell1_256x8m81_0/a_246_342# 018SRAM_cell1_2x_256x8m81_9/018SRAM_cell1_256x8m81_1/a_444_n42#
+ 018SRAM_cell1_2x_256x8m81_12/018SRAM_cell1_256x8m81_0/a_246_712# 018SRAM_cell1_2x_256x8m81_11/018SRAM_cell1_256x8m81_1/a_246_342#
+ 018SRAM_cell1_2x_256x8m81_9/018SRAM_cell1_256x8m81_1/a_36_n42# VSUBS x018SRAM_cell1_2x_256x8m81
X018SRAM_cell1_2x_256x8m81_13 018SRAM_cell1_2x_256x8m81_13/018SRAM_cell1_256x8m81_0/w_n68_622#
+ 018SRAM_cell1_2x_256x8m81_13/018SRAM_cell1_256x8m81_0/a_n36_52# 018SRAM_cell1_2x_256x8m81_14/018SRAM_cell1_256x8m81_0/w_n68_622#
+ 018SRAM_cell1_2x_256x8m81_13/018SRAM_cell1_256x8m81_1/a_n36_52# 018SRAM_cell1_2x_256x8m81_13/018SRAM_cell1_256x8m81_1/m3_n36_330#
+ 018SRAM_cell1_2x_256x8m81_13/018SRAM_cell1_256x8m81_0/m3_n36_330# 018SRAM_cell1_2x_256x8m81_13/018SRAM_cell1_256x8m81_0/a_246_712#
+ 018SRAM_cell1_2x_256x8m81_13/018SRAM_cell1_256x8m81_0/a_246_342# 018SRAM_cell1_2x_256x8m81_9/018SRAM_cell1_256x8m81_1/a_444_n42#
+ 018SRAM_cell1_2x_256x8m81_14/018SRAM_cell1_256x8m81_0/a_246_712# 018SRAM_cell1_2x_256x8m81_13/018SRAM_cell1_256x8m81_1/a_246_342#
+ 018SRAM_cell1_2x_256x8m81_9/018SRAM_cell1_256x8m81_1/a_36_n42# VSUBS x018SRAM_cell1_2x_256x8m81
X018SRAM_cell1_2x_256x8m81_12 018SRAM_cell1_2x_256x8m81_12/018SRAM_cell1_256x8m81_0/w_n68_622#
+ 018SRAM_cell1_2x_256x8m81_12/018SRAM_cell1_256x8m81_0/a_n36_52# 018SRAM_cell1_2x_256x8m81_13/018SRAM_cell1_256x8m81_0/w_n68_622#
+ 018SRAM_cell1_2x_256x8m81_12/018SRAM_cell1_256x8m81_1/a_n36_52# 018SRAM_cell1_2x_256x8m81_12/018SRAM_cell1_256x8m81_1/m3_n36_330#
+ 018SRAM_cell1_2x_256x8m81_12/018SRAM_cell1_256x8m81_0/m3_n36_330# 018SRAM_cell1_2x_256x8m81_12/018SRAM_cell1_256x8m81_0/a_246_712#
+ 018SRAM_cell1_2x_256x8m81_12/018SRAM_cell1_256x8m81_0/a_246_342# 018SRAM_cell1_2x_256x8m81_9/018SRAM_cell1_256x8m81_1/a_444_n42#
+ 018SRAM_cell1_2x_256x8m81_13/018SRAM_cell1_256x8m81_0/a_246_712# 018SRAM_cell1_2x_256x8m81_12/018SRAM_cell1_256x8m81_1/a_246_342#
+ 018SRAM_cell1_2x_256x8m81_9/018SRAM_cell1_256x8m81_1/a_36_n42# VSUBS x018SRAM_cell1_2x_256x8m81
X018SRAM_cell1_2x_256x8m81_14 018SRAM_cell1_2x_256x8m81_14/018SRAM_cell1_256x8m81_0/w_n68_622#
+ 018SRAM_cell1_2x_256x8m81_14/018SRAM_cell1_256x8m81_0/a_n36_52# 018SRAM_cell1_2x_256x8m81_14/018SRAM_cell1_256x8m81_1/w_n68_622#
+ 018SRAM_cell1_2x_256x8m81_14/018SRAM_cell1_256x8m81_1/a_n36_52# 018SRAM_cell1_2x_256x8m81_14/018SRAM_cell1_256x8m81_1/m3_n36_330#
+ 018SRAM_cell1_2x_256x8m81_14/018SRAM_cell1_256x8m81_0/m3_n36_330# 018SRAM_cell1_2x_256x8m81_14/018SRAM_cell1_256x8m81_0/a_246_712#
+ 018SRAM_cell1_2x_256x8m81_14/018SRAM_cell1_256x8m81_0/a_246_342# 018SRAM_cell1_2x_256x8m81_9/018SRAM_cell1_256x8m81_1/a_444_n42#
+ 018SRAM_cell1_2x_256x8m81_14/018SRAM_cell1_256x8m81_1/a_246_712# 018SRAM_cell1_2x_256x8m81_14/018SRAM_cell1_256x8m81_1/a_246_342#
+ 018SRAM_cell1_2x_256x8m81_9/018SRAM_cell1_256x8m81_1/a_36_n42# VSUBS x018SRAM_cell1_2x_256x8m81
X018SRAM_cell1_2x_256x8m81_15 018SRAM_cell1_2x_256x8m81_0/018SRAM_cell1_256x8m81_1/w_n68_622#
+ 018SRAM_cell1_2x_256x8m81_15/018SRAM_cell1_256x8m81_0/a_n36_52# 018SRAM_cell1_2x_256x8m81_1/018SRAM_cell1_256x8m81_0/w_n68_622#
+ 018SRAM_cell1_2x_256x8m81_15/018SRAM_cell1_256x8m81_1/a_n36_52# 018SRAM_cell1_2x_256x8m81_15/018SRAM_cell1_256x8m81_1/m3_n36_330#
+ 018SRAM_cell1_2x_256x8m81_15/018SRAM_cell1_256x8m81_0/m3_n36_330# 018SRAM_cell1_2x_256x8m81_0/018SRAM_cell1_256x8m81_1/a_246_712#
+ 018SRAM_cell1_2x_256x8m81_15/018SRAM_cell1_256x8m81_0/a_246_342# 018SRAM_cell1_2x_256x8m81_9/018SRAM_cell1_256x8m81_1/a_444_n42#
+ 018SRAM_cell1_2x_256x8m81_1/018SRAM_cell1_256x8m81_0/a_246_712# 018SRAM_cell1_2x_256x8m81_15/018SRAM_cell1_256x8m81_1/a_246_342#
+ 018SRAM_cell1_2x_256x8m81_9/018SRAM_cell1_256x8m81_1/a_36_n42# VSUBS x018SRAM_cell1_2x_256x8m81
X018SRAM_cell1_2x_256x8m81_1 018SRAM_cell1_2x_256x8m81_1/018SRAM_cell1_256x8m81_0/w_n68_622#
+ 018SRAM_cell1_2x_256x8m81_1/018SRAM_cell1_256x8m81_0/a_n36_52# 018SRAM_cell1_2x_256x8m81_2/018SRAM_cell1_256x8m81_0/w_n68_622#
+ 018SRAM_cell1_2x_256x8m81_1/018SRAM_cell1_256x8m81_1/a_n36_52# 018SRAM_cell1_2x_256x8m81_1/018SRAM_cell1_256x8m81_1/m3_n36_330#
+ 018SRAM_cell1_2x_256x8m81_1/018SRAM_cell1_256x8m81_0/m3_n36_330# 018SRAM_cell1_2x_256x8m81_1/018SRAM_cell1_256x8m81_0/a_246_712#
+ 018SRAM_cell1_2x_256x8m81_1/018SRAM_cell1_256x8m81_0/a_246_342# 018SRAM_cell1_2x_256x8m81_9/018SRAM_cell1_256x8m81_1/a_444_n42#
+ 018SRAM_cell1_2x_256x8m81_2/018SRAM_cell1_256x8m81_0/a_246_712# 018SRAM_cell1_2x_256x8m81_1/018SRAM_cell1_256x8m81_1/a_246_342#
+ 018SRAM_cell1_2x_256x8m81_9/018SRAM_cell1_256x8m81_1/a_36_n42# VSUBS x018SRAM_cell1_2x_256x8m81
X018SRAM_cell1_2x_256x8m81_0 018SRAM_cell1_2x_256x8m81_0/018SRAM_cell1_256x8m81_0/w_n68_622#
+ 018SRAM_cell1_2x_256x8m81_0/018SRAM_cell1_256x8m81_0/a_n36_52# 018SRAM_cell1_2x_256x8m81_0/018SRAM_cell1_256x8m81_1/w_n68_622#
+ 018SRAM_cell1_2x_256x8m81_0/018SRAM_cell1_256x8m81_1/a_n36_52# 018SRAM_cell1_2x_256x8m81_0/018SRAM_cell1_256x8m81_1/m3_n36_330#
+ 018SRAM_cell1_2x_256x8m81_0/018SRAM_cell1_256x8m81_0/m3_n36_330# 018SRAM_cell1_2x_256x8m81_0/018SRAM_cell1_256x8m81_0/a_246_712#
+ 018SRAM_cell1_2x_256x8m81_0/018SRAM_cell1_256x8m81_0/a_246_342# 018SRAM_cell1_2x_256x8m81_9/018SRAM_cell1_256x8m81_1/a_444_n42#
+ 018SRAM_cell1_2x_256x8m81_0/018SRAM_cell1_256x8m81_1/a_246_712# 018SRAM_cell1_2x_256x8m81_0/018SRAM_cell1_256x8m81_1/a_246_342#
+ 018SRAM_cell1_2x_256x8m81_9/018SRAM_cell1_256x8m81_1/a_36_n42# VSUBS x018SRAM_cell1_2x_256x8m81
X018SRAM_cell1_2x_256x8m81_2 018SRAM_cell1_2x_256x8m81_2/018SRAM_cell1_256x8m81_0/w_n68_622#
+ 018SRAM_cell1_2x_256x8m81_2/018SRAM_cell1_256x8m81_0/a_n36_52# 018SRAM_cell1_2x_256x8m81_3/018SRAM_cell1_256x8m81_0/w_n68_622#
+ 018SRAM_cell1_2x_256x8m81_2/018SRAM_cell1_256x8m81_1/a_n36_52# 018SRAM_cell1_2x_256x8m81_2/018SRAM_cell1_256x8m81_1/m3_n36_330#
+ 018SRAM_cell1_2x_256x8m81_2/018SRAM_cell1_256x8m81_0/m3_n36_330# 018SRAM_cell1_2x_256x8m81_2/018SRAM_cell1_256x8m81_0/a_246_712#
+ 018SRAM_cell1_2x_256x8m81_2/018SRAM_cell1_256x8m81_0/a_246_342# 018SRAM_cell1_2x_256x8m81_9/018SRAM_cell1_256x8m81_1/a_444_n42#
+ 018SRAM_cell1_2x_256x8m81_3/018SRAM_cell1_256x8m81_0/a_246_712# 018SRAM_cell1_2x_256x8m81_2/018SRAM_cell1_256x8m81_1/a_246_342#
+ 018SRAM_cell1_2x_256x8m81_9/018SRAM_cell1_256x8m81_1/a_36_n42# VSUBS x018SRAM_cell1_2x_256x8m81
X018SRAM_cell1_2x_256x8m81_3 018SRAM_cell1_2x_256x8m81_3/018SRAM_cell1_256x8m81_0/w_n68_622#
+ 018SRAM_cell1_2x_256x8m81_3/018SRAM_cell1_256x8m81_0/a_n36_52# 018SRAM_cell1_2x_256x8m81_4/018SRAM_cell1_256x8m81_0/w_n68_622#
+ 018SRAM_cell1_2x_256x8m81_3/018SRAM_cell1_256x8m81_1/a_n36_52# 018SRAM_cell1_2x_256x8m81_3/018SRAM_cell1_256x8m81_1/m3_n36_330#
+ 018SRAM_cell1_2x_256x8m81_3/018SRAM_cell1_256x8m81_0/m3_n36_330# 018SRAM_cell1_2x_256x8m81_3/018SRAM_cell1_256x8m81_0/a_246_712#
+ 018SRAM_cell1_2x_256x8m81_3/018SRAM_cell1_256x8m81_0/a_246_342# 018SRAM_cell1_2x_256x8m81_9/018SRAM_cell1_256x8m81_1/a_444_n42#
+ 018SRAM_cell1_2x_256x8m81_4/018SRAM_cell1_256x8m81_0/a_246_712# 018SRAM_cell1_2x_256x8m81_3/018SRAM_cell1_256x8m81_1/a_246_342#
+ 018SRAM_cell1_2x_256x8m81_9/018SRAM_cell1_256x8m81_1/a_36_n42# VSUBS x018SRAM_cell1_2x_256x8m81
X018SRAM_cell1_2x_256x8m81_4 018SRAM_cell1_2x_256x8m81_4/018SRAM_cell1_256x8m81_0/w_n68_622#
+ 018SRAM_cell1_2x_256x8m81_4/018SRAM_cell1_256x8m81_0/a_n36_52# 018SRAM_cell1_2x_256x8m81_5/018SRAM_cell1_256x8m81_0/w_n68_622#
+ 018SRAM_cell1_2x_256x8m81_4/018SRAM_cell1_256x8m81_1/a_n36_52# 018SRAM_cell1_2x_256x8m81_4/018SRAM_cell1_256x8m81_1/m3_n36_330#
+ 018SRAM_cell1_2x_256x8m81_4/018SRAM_cell1_256x8m81_0/m3_n36_330# 018SRAM_cell1_2x_256x8m81_4/018SRAM_cell1_256x8m81_0/a_246_712#
+ 018SRAM_cell1_2x_256x8m81_4/018SRAM_cell1_256x8m81_0/a_246_342# 018SRAM_cell1_2x_256x8m81_9/018SRAM_cell1_256x8m81_1/a_444_n42#
+ 018SRAM_cell1_2x_256x8m81_5/018SRAM_cell1_256x8m81_0/a_246_712# 018SRAM_cell1_2x_256x8m81_4/018SRAM_cell1_256x8m81_1/a_246_342#
+ 018SRAM_cell1_2x_256x8m81_9/018SRAM_cell1_256x8m81_1/a_36_n42# VSUBS x018SRAM_cell1_2x_256x8m81
X018SRAM_cell1_2x_256x8m81_5 018SRAM_cell1_2x_256x8m81_5/018SRAM_cell1_256x8m81_0/w_n68_622#
+ 018SRAM_cell1_2x_256x8m81_5/018SRAM_cell1_256x8m81_0/a_n36_52# 018SRAM_cell1_2x_256x8m81_6/018SRAM_cell1_256x8m81_0/w_n68_622#
+ 018SRAM_cell1_2x_256x8m81_5/018SRAM_cell1_256x8m81_1/a_n36_52# 018SRAM_cell1_2x_256x8m81_5/018SRAM_cell1_256x8m81_1/m3_n36_330#
+ 018SRAM_cell1_2x_256x8m81_5/018SRAM_cell1_256x8m81_0/m3_n36_330# 018SRAM_cell1_2x_256x8m81_5/018SRAM_cell1_256x8m81_0/a_246_712#
+ 018SRAM_cell1_2x_256x8m81_5/018SRAM_cell1_256x8m81_0/a_246_342# 018SRAM_cell1_2x_256x8m81_9/018SRAM_cell1_256x8m81_1/a_444_n42#
+ 018SRAM_cell1_2x_256x8m81_6/018SRAM_cell1_256x8m81_0/a_246_712# 018SRAM_cell1_2x_256x8m81_5/018SRAM_cell1_256x8m81_1/a_246_342#
+ 018SRAM_cell1_2x_256x8m81_9/018SRAM_cell1_256x8m81_1/a_36_n42# VSUBS x018SRAM_cell1_2x_256x8m81
X018SRAM_cell1_2x_256x8m81_6 018SRAM_cell1_2x_256x8m81_6/018SRAM_cell1_256x8m81_0/w_n68_622#
+ 018SRAM_cell1_2x_256x8m81_6/018SRAM_cell1_256x8m81_0/a_n36_52# 018SRAM_cell1_2x_256x8m81_7/018SRAM_cell1_256x8m81_0/w_n68_622#
+ 018SRAM_cell1_2x_256x8m81_6/018SRAM_cell1_256x8m81_1/a_n36_52# 018SRAM_cell1_2x_256x8m81_6/018SRAM_cell1_256x8m81_1/m3_n36_330#
+ 018SRAM_cell1_2x_256x8m81_6/018SRAM_cell1_256x8m81_0/m3_n36_330# 018SRAM_cell1_2x_256x8m81_6/018SRAM_cell1_256x8m81_0/a_246_712#
+ 018SRAM_cell1_2x_256x8m81_6/018SRAM_cell1_256x8m81_0/a_246_342# 018SRAM_cell1_2x_256x8m81_9/018SRAM_cell1_256x8m81_1/a_444_n42#
+ 018SRAM_cell1_2x_256x8m81_7/018SRAM_cell1_256x8m81_0/a_246_712# 018SRAM_cell1_2x_256x8m81_6/018SRAM_cell1_256x8m81_1/a_246_342#
+ 018SRAM_cell1_2x_256x8m81_9/018SRAM_cell1_256x8m81_1/a_36_n42# VSUBS x018SRAM_cell1_2x_256x8m81
X018SRAM_cell1_2x_256x8m81_7 018SRAM_cell1_2x_256x8m81_7/018SRAM_cell1_256x8m81_0/w_n68_622#
+ 018SRAM_cell1_2x_256x8m81_7/018SRAM_cell1_256x8m81_0/a_n36_52# 018SRAM_cell1_2x_256x8m81_8/018SRAM_cell1_256x8m81_0/w_n68_622#
+ 018SRAM_cell1_2x_256x8m81_7/018SRAM_cell1_256x8m81_1/a_n36_52# 018SRAM_cell1_2x_256x8m81_7/018SRAM_cell1_256x8m81_1/m3_n36_330#
+ 018SRAM_cell1_2x_256x8m81_7/018SRAM_cell1_256x8m81_0/m3_n36_330# 018SRAM_cell1_2x_256x8m81_7/018SRAM_cell1_256x8m81_0/a_246_712#
+ 018SRAM_cell1_2x_256x8m81_7/018SRAM_cell1_256x8m81_0/a_246_342# 018SRAM_cell1_2x_256x8m81_9/018SRAM_cell1_256x8m81_1/a_444_n42#
+ 018SRAM_cell1_2x_256x8m81_8/018SRAM_cell1_256x8m81_0/a_246_712# 018SRAM_cell1_2x_256x8m81_7/018SRAM_cell1_256x8m81_1/a_246_342#
+ 018SRAM_cell1_2x_256x8m81_9/018SRAM_cell1_256x8m81_1/a_36_n42# VSUBS x018SRAM_cell1_2x_256x8m81
X018SRAM_cell1_2x_256x8m81_8 018SRAM_cell1_2x_256x8m81_8/018SRAM_cell1_256x8m81_0/w_n68_622#
+ 018SRAM_cell1_2x_256x8m81_8/018SRAM_cell1_256x8m81_0/a_n36_52# 018SRAM_cell1_2x_256x8m81_9/018SRAM_cell1_256x8m81_0/w_n68_622#
+ 018SRAM_cell1_2x_256x8m81_8/018SRAM_cell1_256x8m81_1/a_n36_52# 018SRAM_cell1_2x_256x8m81_8/018SRAM_cell1_256x8m81_1/m3_n36_330#
+ 018SRAM_cell1_2x_256x8m81_8/018SRAM_cell1_256x8m81_0/m3_n36_330# 018SRAM_cell1_2x_256x8m81_8/018SRAM_cell1_256x8m81_0/a_246_712#
+ 018SRAM_cell1_2x_256x8m81_8/018SRAM_cell1_256x8m81_0/a_246_342# 018SRAM_cell1_2x_256x8m81_9/018SRAM_cell1_256x8m81_1/a_444_n42#
+ 018SRAM_cell1_2x_256x8m81_9/018SRAM_cell1_256x8m81_0/a_246_712# 018SRAM_cell1_2x_256x8m81_8/018SRAM_cell1_256x8m81_1/a_246_342#
+ 018SRAM_cell1_2x_256x8m81_9/018SRAM_cell1_256x8m81_1/a_36_n42# VSUBS x018SRAM_cell1_2x_256x8m81
X018SRAM_cell1_2x_256x8m81_9 018SRAM_cell1_2x_256x8m81_9/018SRAM_cell1_256x8m81_0/w_n68_622#
+ 018SRAM_cell1_2x_256x8m81_9/018SRAM_cell1_256x8m81_0/a_n36_52# 018SRAM_cell1_2x_256x8m81_9/018SRAM_cell1_256x8m81_1/w_n68_622#
+ 018SRAM_cell1_2x_256x8m81_9/018SRAM_cell1_256x8m81_1/a_n36_52# 018SRAM_cell1_2x_256x8m81_9/018SRAM_cell1_256x8m81_1/m3_n36_330#
+ 018SRAM_cell1_2x_256x8m81_9/018SRAM_cell1_256x8m81_0/m3_n36_330# 018SRAM_cell1_2x_256x8m81_9/018SRAM_cell1_256x8m81_0/a_246_712#
+ 018SRAM_cell1_2x_256x8m81_9/018SRAM_cell1_256x8m81_0/a_246_342# 018SRAM_cell1_2x_256x8m81_9/018SRAM_cell1_256x8m81_1/a_444_n42#
+ 018SRAM_cell1_2x_256x8m81_9/018SRAM_cell1_256x8m81_1/a_246_712# 018SRAM_cell1_2x_256x8m81_9/018SRAM_cell1_256x8m81_1/a_246_342#
+ 018SRAM_cell1_2x_256x8m81_9/018SRAM_cell1_256x8m81_1/a_36_n42# VSUBS x018SRAM_cell1_2x_256x8m81
.ends

.subckt rarray4_256_256x8m81 WL[23] WL[26] WL[18] WL[11] WL[15] WL[14] WL[19] WL[31]
+ WL[13] WL[16] Cell_array32x1_256x8m81_18/018SRAM_cell1_2x_256x8m81_9/018SRAM_cell1_256x8m81_1/a_444_n42#
+ Cell_array32x1_256x8m81_30/018SRAM_cell1_2x_256x8m81_9/018SRAM_cell1_256x8m81_1/a_36_n42#
+ Cell_array32x1_256x8m81_28/018SRAM_cell1_2x_256x8m81_9/018SRAM_cell1_256x8m81_1/a_444_n42#
+ Cell_array32x1_256x8m81_9/018SRAM_cell1_2x_256x8m81_9/018SRAM_cell1_256x8m81_1/a_444_n42#
+ Cell_array32x1_256x8m81_27/018SRAM_cell1_2x_256x8m81_9/018SRAM_cell1_256x8m81_1/a_444_n42#
+ Cell_array32x1_256x8m81_20/018SRAM_cell1_2x_256x8m81_9/018SRAM_cell1_256x8m81_1/a_36_n42#
+ Cell_array32x1_256x8m81_21/018SRAM_cell1_2x_256x8m81_9/018SRAM_cell1_256x8m81_1/a_36_n42#
+ Cell_array32x1_256x8m81_17/018SRAM_cell1_2x_256x8m81_9/018SRAM_cell1_256x8m81_1/a_444_n42#
+ WL[5] Cell_array32x1_256x8m81_25/018SRAM_cell1_2x_256x8m81_9/018SRAM_cell1_256x8m81_1/a_36_n42#
+ WL[2] Cell_array32x1_256x8m81_26/018SRAM_cell1_2x_256x8m81_9/018SRAM_cell1_256x8m81_1/a_36_n42#
+ Cell_array32x1_256x8m81_13/018SRAM_cell1_2x_256x8m81_9/018SRAM_cell1_256x8m81_1/a_444_n42#
+ Cell_array32x1_256x8m81_12/018SRAM_cell1_2x_256x8m81_9/018SRAM_cell1_256x8m81_1/a_444_n42#
+ Cell_array32x1_256x8m81_26/018SRAM_cell1_2x_256x8m81_9/018SRAM_cell1_256x8m81_1/a_444_n42#
+ Cell_array32x1_256x8m81_24/018SRAM_cell1_2x_256x8m81_9/018SRAM_cell1_256x8m81_1/a_36_n42#
+ Cell_array32x1_256x8m81_10/018SRAM_cell1_2x_256x8m81_9/018SRAM_cell1_256x8m81_1/a_36_n42#
+ Cell_array32x1_256x8m81_8/018SRAM_cell1_2x_256x8m81_9/018SRAM_cell1_256x8m81_1/a_444_n42#
+ Cell_array32x1_256x8m81_11/018SRAM_cell1_2x_256x8m81_9/018SRAM_cell1_256x8m81_1/a_36_n42#
+ WL[27] Cell_array32x1_256x8m81_11/018SRAM_cell1_2x_256x8m81_9/018SRAM_cell1_256x8m81_1/a_444_n42#
+ Cell_array32x1_256x8m81_16/018SRAM_cell1_2x_256x8m81_9/018SRAM_cell1_256x8m81_1/a_444_n42#
+ WL[0] Cell_array32x1_256x8m81_29/018SRAM_cell1_2x_256x8m81_9/018SRAM_cell1_256x8m81_1/a_36_n42#
+ Cell_array32x1_256x8m81_22/018SRAM_cell1_2x_256x8m81_9/018SRAM_cell1_256x8m81_1/a_444_n42#
+ Cell_array32x1_256x8m81_4/018SRAM_cell1_2x_256x8m81_9/018SRAM_cell1_256x8m81_1/a_444_n42#
+ Cell_array32x1_256x8m81_14/018SRAM_cell1_2x_256x8m81_9/018SRAM_cell1_256x8m81_1/a_36_n42#
+ Cell_array32x1_256x8m81_15/018SRAM_cell1_2x_256x8m81_9/018SRAM_cell1_256x8m81_1/a_36_n42#
+ Cell_array32x1_256x8m81_7/018SRAM_cell1_2x_256x8m81_9/018SRAM_cell1_256x8m81_1/a_444_n42#
+ Cell_array32x1_256x8m81_16/018SRAM_cell1_2x_256x8m81_9/018SRAM_cell1_256x8m81_1/a_36_n42#
+ WL[8] Cell_array32x1_256x8m81_0/018SRAM_cell1_2x_256x8m81_9/018SRAM_cell1_256x8m81_1/a_36_n42#
+ Cell_array32x1_256x8m81_20/018SRAM_cell1_2x_256x8m81_9/018SRAM_cell1_256x8m81_1/a_444_n42#
+ Cell_array32x1_256x8m81_19/018SRAM_cell1_2x_256x8m81_9/018SRAM_cell1_256x8m81_1/a_36_n42#
+ Cell_array32x1_256x8m81_2/018SRAM_cell1_2x_256x8m81_9/018SRAM_cell1_256x8m81_1/a_444_n42#
+ Cell_array32x1_256x8m81_25/018SRAM_cell1_2x_256x8m81_9/018SRAM_cell1_256x8m81_1/a_444_n42#
+ Cell_array32x1_256x8m81_2/018SRAM_cell1_2x_256x8m81_9/018SRAM_cell1_256x8m81_1/a_36_n42#
+ WL[24] Cell_array32x1_256x8m81_10/018SRAM_cell1_2x_256x8m81_9/018SRAM_cell1_256x8m81_1/a_444_n42#
+ Cell_array32x1_256x8m81_31/018SRAM_cell1_2x_256x8m81_9/018SRAM_cell1_256x8m81_1/a_444_n42#
+ Cell_array32x1_256x8m81_23/018SRAM_cell1_2x_256x8m81_9/018SRAM_cell1_256x8m81_1/a_36_n42#
+ WL[3] Cell_array32x1_256x8m81_15/018SRAM_cell1_2x_256x8m81_9/018SRAM_cell1_256x8m81_1/a_444_n42#
+ Cell_array32x1_256x8m81_28/018SRAM_cell1_2x_256x8m81_9/018SRAM_cell1_256x8m81_1/a_36_n42#
+ Cell_array32x1_256x8m81_5/018SRAM_cell1_2x_256x8m81_9/018SRAM_cell1_256x8m81_1/a_36_n42#
+ Cell_array32x1_256x8m81_30/018SRAM_cell1_2x_256x8m81_9/018SRAM_cell1_256x8m81_1/a_444_n42#
+ Cell_array32x1_256x8m81_13/018SRAM_cell1_2x_256x8m81_9/018SRAM_cell1_256x8m81_1/a_36_n42#
+ Cell_array32x1_256x8m81_1/018SRAM_cell1_2x_256x8m81_9/018SRAM_cell1_256x8m81_1/a_444_n42#
+ WL[6] Cell_array32x1_256x8m81_6/018SRAM_cell1_2x_256x8m81_9/018SRAM_cell1_256x8m81_1/a_36_n42#
+ Cell_array32x1_256x8m81_7/018SRAM_cell1_2x_256x8m81_9/018SRAM_cell1_256x8m81_1/a_36_n42#
+ Cell_array32x1_256x8m81_21/018SRAM_cell1_2x_256x8m81_9/018SRAM_cell1_256x8m81_1/a_444_n42#
+ Cell_array32x1_256x8m81_3/018SRAM_cell1_2x_256x8m81_9/018SRAM_cell1_256x8m81_1/a_444_n42#
+ WL[1] Cell_array32x1_256x8m81_18/018SRAM_cell1_2x_256x8m81_9/018SRAM_cell1_256x8m81_1/a_36_n42#
+ Cell_array32x1_256x8m81_6/018SRAM_cell1_2x_256x8m81_9/018SRAM_cell1_256x8m81_1/a_444_n42#
+ WL[29] Cell_array32x1_256x8m81_4/018SRAM_cell1_2x_256x8m81_9/018SRAM_cell1_256x8m81_1/a_36_n42#
+ WL[4] WL[12] Cell_array32x1_256x8m81_9/018SRAM_cell1_2x_256x8m81_9/018SRAM_cell1_256x8m81_1/a_36_n42#
+ Cell_array32x1_256x8m81_24/018SRAM_cell1_2x_256x8m81_9/018SRAM_cell1_256x8m81_1/a_444_n42#
+ Cell_array32x1_256x8m81_22/018SRAM_cell1_2x_256x8m81_9/018SRAM_cell1_256x8m81_1/a_36_n42#
+ WL[28] WL[30] Cell_array32x1_256x8m81_29/018SRAM_cell1_2x_256x8m81_9/018SRAM_cell1_256x8m81_1/a_444_n42#
+ Cell_array32x1_256x8m81_14/018SRAM_cell1_2x_256x8m81_9/018SRAM_cell1_256x8m81_1/a_444_n42#
+ WL[9] Cell_array32x1_256x8m81_27/018SRAM_cell1_2x_256x8m81_9/018SRAM_cell1_256x8m81_1/a_36_n42#
+ WL[25] Cell_array32x1_256x8m81_0/018SRAM_cell1_2x_256x8m81_9/018SRAM_cell1_256x8m81_1/a_444_n42#
+ Cell_array32x1_256x8m81_12/018SRAM_cell1_2x_256x8m81_9/018SRAM_cell1_256x8m81_1/a_36_n42#
+ Cell_array32x1_256x8m81_19/018SRAM_cell1_2x_256x8m81_9/018SRAM_cell1_256x8m81_1/a_444_n42#
+ Cell_array32x1_256x8m81_5/018SRAM_cell1_2x_256x8m81_9/018SRAM_cell1_256x8m81_1/a_444_n42#
+ Cell_array32x1_256x8m81_17/018SRAM_cell1_2x_256x8m81_9/018SRAM_cell1_256x8m81_1/a_36_n42#
+ WL[20] Cell_array32x1_256x8m81_1/018SRAM_cell1_2x_256x8m81_9/018SRAM_cell1_256x8m81_1/a_36_n42#
+ WL[21] WL[7] Cell_array32x1_256x8m81_3/018SRAM_cell1_2x_256x8m81_9/018SRAM_cell1_256x8m81_1/a_36_n42#
+ WL[17] Cell_array32x1_256x8m81_31/018SRAM_cell1_2x_256x8m81_9/018SRAM_cell1_256x8m81_1/a_36_n42#