* NGSPICE file created from gf180mcu_fd_ip_sram__sram512x8m8wm1.ext - technology: gf180mcuA

.subckt x018SRAM_cell1_dummy_512x8m81 a_n36_52# m2_90_n50# a_246_342# m2_390_n50#
+ a_246_712# m3_n36_330# w_n68_622# VSUBS
X0 a_126_298# a_n36_52# a_444_n42# VSUBS nmos_6p0 w=0.6u l=0.77u
X1 a_36_206# a_n36_52# a_36_n42# VSUBS nmos_6p0 w=0.6u l=0.77u
X2 a_246_712# a_126_298# a_36_206# w_n68_622# pmos_6p0 w=0.6u l=0.6u
X3 a_126_298# a_36_206# a_246_712# w_n68_622# pmos_6p0 w=0.6u l=0.6u
X4 a_246_342# a_126_298# a_36_206# VSUBS nmos_6p0 w=0.95u l=0.6u
X5 a_126_298# a_36_206# a_246_342# VSUBS nmos_6p0 w=0.95u l=0.6u
.ends

.subckt x018SRAM_cell1_cutPC_512x8m81 a_n36_52# a_444_n42# a_246_342# a_246_712# m3_n36_330#
+ a_36_n42# w_n68_622# VSUBS
X0 a_126_298# a_n36_52# a_444_n42# VSUBS nmos_6p0 w=0.6u l=0.77u
X1 a_36_206# a_n36_52# a_36_n42# VSUBS nmos_6p0 w=0.6u l=0.77u
X2 a_246_712# a_126_298# a_36_206# w_n68_622# pmos_6p0 w=0.6u l=0.6u
X3 a_126_298# a_36_206# a_246_712# w_n68_622# pmos_6p0 w=0.6u l=0.6u
X4 a_246_342# a_126_298# a_36_206# VSUBS nmos_6p0 w=0.95u l=0.6u
X5 a_126_298# a_36_206# a_246_342# VSUBS nmos_6p0 w=0.95u l=0.6u
.ends

.subckt array16_512_dummy_01_512x8m81 018SRAM_cell1_cutPC_512x8m81_43/a_n36_52# 018SRAM_cell1_cutPC_512x8m81_10/a_n36_52#
+ 018SRAM_cell1_cutPC_512x8m81_49/a_246_342# 018SRAM_cell1_cutPC_512x8m81_2/m3_n36_330#
+ 018SRAM_cell1_cutPC_512x8m81_55/m3_n36_330# 018SRAM_cell1_cutPC_512x8m81_44/w_n68_622#
+ 018SRAM_cell1_cutPC_512x8m81_59/a_246_342# 018SRAM_cell1_cutPC_512x8m81_3/m3_n36_330#
+ 018SRAM_cell1_cutPC_512x8m81_28/a_n36_52# 018SRAM_cell1_cutPC_512x8m81_56/m3_n36_330#
+ 018SRAM_cell1_cutPC_512x8m81_4/a_246_712# 018SRAM_cell1_cutPC_512x8m81_48/w_n68_622#
+ 018SRAM_cell1_cutPC_512x8m81_4/m3_n36_330# 018SRAM_cell1_cutPC_512x8m81_57/m3_n36_330#
+ 018SRAM_cell1_cutPC_512x8m81_37/w_n68_622# 018SRAM_cell1_cutPC_512x8m81_24/a_n36_52#
+ 018SRAM_cell1_cutPC_512x8m81_57/a_n36_52# 018SRAM_cell1_cutPC_512x8m81_58/m3_n36_330#
+ 018SRAM_cell1_cutPC_512x8m81_1/a_246_342# 018SRAM_cell1_cutPC_512x8m81_1/a_246_712#
+ 018SRAM_cell1_cutPC_512x8m81_5/m3_n36_330# 018SRAM_cell1_cutPC_512x8m81_20/a_n36_52#
+ 018SRAM_cell1_cutPC_512x8m81_53/a_n36_52# 018SRAM_cell1_cutPC_512x8m81_59/m3_n36_330#
+ 018SRAM_cell1_cutPC_512x8m81_6/m3_n36_330# 018SRAM_cell1_cutPC_512x8m81_40/m3_n36_330#
+ 018SRAM_cell1_cutPC_512x8m81_41/m3_n36_330# 018SRAM_cell1_cutPC_512x8m81_10/a_246_342#
+ 018SRAM_cell1_cutPC_512x8m81_8/w_n68_622# 018SRAM_cell1_cutPC_512x8m81_7/m3_n36_330#
+ 018SRAM_cell1_cutPC_512x8m81_38/a_n36_52# 018SRAM_cell1_cutPC_512x8m81_53/a_246_712#
+ 018SRAM_cell1_cutPC_512x8m81_45/w_n68_622# 018SRAM_cell1_cutPC_512x8m81_42/m3_n36_330#
+ 018SRAM_cell1_cutPC_512x8m81_20/a_246_342# 018SRAM_cell1_cutPC_512x8m81_36/w_n68_622#
+ 018SRAM_cell1_cutPC_512x8m81_34/a_n36_52# 018SRAM_cell1_cutPC_512x8m81_8/m3_n36_330#
+ 018SRAM_cell1_cutPC_512x8m81_42/a_246_712# 018SRAM_cell1_cutPC_512x8m81_9/a_n36_52#
+ 018SRAM_cell1_cutPC_512x8m81_2/a_246_342# 018SRAM_cell1_cutPC_512x8m81_9/m3_n36_330#
+ 018SRAM_cell1_cutPC_512x8m81_43/m3_n36_330# 018SRAM_cell1_cutPC_512x8m81_30/a_246_342#
+ 018SRAM_cell1_cutPC_512x8m81_2/a_246_712# 018SRAM_cell1_cutPC_512x8m81_32/a_246_712#
+ 018SRAM_cell1_cutPC_512x8m81_30/a_n36_52# 018SRAM_cell1_cutPC_512x8m81_5/a_n36_52#
+ 018SRAM_cell1_cutPC_512x8m81_63/a_n36_52# 018SRAM_cell1_cutPC_512x8m81_40/a_246_342#
+ 018SRAM_cell1_cutPC_512x8m81_19/a_n36_52# 018SRAM_cell1_cutPC_512x8m81_44/m3_n36_330#
+ 018SRAM_cell1_cutPC_512x8m81_40/a_246_712# 018SRAM_cell1_cutPC_512x8m81_11/a_246_342#
+ 018SRAM_cell1_cutPC_512x8m81_50/a_246_342# 018SRAM_cell1_cutPC_512x8m81_45/m3_n36_330#
+ 018SRAM_cell1_cutPC_512x8m81_1/a_n36_52# 018SRAM_cell1_cutPC_512x8m81_48/a_n36_52#
+ 018SRAM_cell1_cutPC_512x8m81_15/a_n36_52# 018SRAM_cell1_cutPC_512x8m81_7/w_n68_622#
+ 018SRAM_cell1_cutPC_512x8m81_47/w_n68_622# 018SRAM_cell1_cutPC_512x8m81_52/a_246_712#
+ 018SRAM_cell1_cutPC_512x8m81_60/a_246_342# 018SRAM_cell1_cutPC_512x8m81_21/a_246_342#
+ 018SRAM_cell1_cutPC_512x8m81_46/m3_n36_330# 018SRAM_cell1_cutPC_512x8m81_35/w_n68_622#
+ 018SRAM_cell1_cutPC_512x8m81_44/a_n36_52# 018SRAM_cell1_cutPC_512x8m81_11/a_n36_52#
+ 018SRAM_cell1_cutPC_512x8m81_41/a_246_712# 018SRAM_cell1_cutPC_512x8m81_31/a_246_342#
+ 018SRAM_cell1_cutPC_512x8m81_3/a_246_342# 018SRAM_cell1_cutPC_512x8m81_47/m3_n36_330#
+ 018SRAM_cell1_cutPC_512x8m81_61/a_246_712# 018SRAM_cell1_cutPC_512x8m81_3/a_246_712#
+ 018SRAM_cell1_cutPC_512x8m81_9/w_n68_622# 018SRAM_cell1_cutPC_512x8m81_48/m3_n36_330#
+ 018SRAM_cell1_cutPC_512x8m81_29/a_n36_52# 018SRAM_cell1_cutPC_512x8m81_40/a_n36_52#
+ 018SRAM_cell1_cutPC_512x8m81_41/a_246_342# 018SRAM_cell1_cutPC_512x8m81_49/m3_n36_330#
+ 018SRAM_cell1_cutPC_512x8m81_12/a_246_342# 018SRAM_cell1_cutPC_512x8m81_51/a_246_342#
+ 018SRAM_cell1_cutPC_512x8m81_25/a_n36_52# 018SRAM_cell1_cutPC_512x8m81_58/a_n36_52#
+ 018SRAM_cell1_cutPC_512x8m81_30/m3_n36_330# 018SRAM_cell1_cutPC_512x8m81_51/a_246_712#
+ 018SRAM_cell1_cutPC_512x8m81_31/m3_n36_330# 018SRAM_cell1_cutPC_512x8m81_61/a_246_342#
+ 018SRAM_cell1_cutPC_512x8m81_22/a_246_342# 018SRAM_cell1_cutPC_512x8m81_21/a_n36_52#
+ 018SRAM_cell1_cutPC_512x8m81_34/w_n68_622# 018SRAM_cell1_cutPC_512x8m81_54/a_n36_52#
+ 018SRAM_cell1_cutPC_512x8m81_32/m3_n36_330# 018SRAM_cell1_cutPC_512x8m81_4/a_246_342#
+ 018SRAM_cell1_cutPC_512x8m81_32/a_246_342# 018SRAM_cell1_cutPC_512x8m81_50/a_n36_52#
+ 018SRAM_cell1_cutPC_512x8m81_39/a_n36_52# 018SRAM_cell1_cutPC_512x8m81_33/m3_n36_330#
+ 018SRAM_cell1_cutPC_512x8m81_42/a_246_342# 018SRAM_cell1_cutPC_512x8m81_35/a_n36_52#
+ 018SRAM_cell1_cutPC_512x8m81_34/m3_n36_330# 018SRAM_cell1_cutPC_512x8m81_52/a_246_342#
+ 018SRAM_cell1_cutPC_512x8m81_13/a_246_342# 018SRAM_cell1_cutPC_512x8m81_43/w_n68_622#
+ 018SRAM_cell1_cutPC_512x8m81_50/a_246_712# 018SRAM_cell1_cutPC_512x8m81_9/a_444_n42#
+ 018SRAM_cell1_cutPC_512x8m81_62/a_246_342# 018SRAM_cell1_cutPC_512x8m81_35/m3_n36_330#
+ 018SRAM_cell1_cutPC_512x8m81_23/a_246_342# 018SRAM_cell1_cutPC_512x8m81_33/w_n68_622#
+ 018SRAM_cell1_cutPC_512x8m81_62/a_246_712# 018SRAM_cell1_cutPC_512x8m81_6/a_n36_52#
+ 018SRAM_cell1_cutPC_512x8m81_31/a_n36_52# 018SRAM_cell1_cutPC_512x8m81_39/a_246_712#
+ 018SRAM_cell1_cutPC_512x8m81_5/a_246_342# 018SRAM_cell1_cutPC_512x8m81_33/a_246_342#
+ 018SRAM_cell1_cutPC_512x8m81_36/m3_n36_330# 018SRAM_cell1_cutPC_512x8m81_5/a_246_712#
+ 018SRAM_cell1_cutPC_512x8m81_0/w_n68_622# 018SRAM_cell1_cutPC_512x8m81_16/a_n36_52#
+ 018SRAM_cell1_cutPC_512x8m81_49/a_n36_52# 018SRAM_cell1_cutPC_512x8m81_60/a_n36_52#
+ 018SRAM_cell1_cutPC_512x8m81_2/a_n36_52# 018SRAM_cell1_cutPC_512x8m81_43/a_246_342#
+ 018SRAM_cell1_cutPC_512x8m81_37/m3_n36_330# 018SRAM_cell1_cutPC_512x8m81_53/a_246_342#
+ 018SRAM_cell1_cutPC_512x8m81_14/a_246_342# 018SRAM_cell1_cutPC_512x8m81_38/m3_n36_330#
+ 018SRAM_cell1_cutPC_512x8m81_45/a_n36_52# 018SRAM_cell1_cutPC_512x8m81_12/a_n36_52#
+ 018SRAM_cell1_cutPC_512x8m81_4/w_n68_622# 018SRAM_cell1_cutPC_512x8m81_49/a_246_712#
+ 018SRAM_cell1_cutPC_512x8m81_39/m3_n36_330# 018SRAM_cell1_cutPC_512x8m81_63/a_246_342#
+ 018SRAM_cell1_cutPC_512x8m81_24/a_246_342# 018SRAM_cell1_cutPC_512x8m81_20/m3_n36_330#
+ 018SRAM_cell1_cutPC_512x8m81_38/a_246_712# 018SRAM_cell1_cutPC_512x8m81_41/a_n36_52#
+ 018SRAM_cell1_cutPC_512x8m81_1/w_n68_622# 018SRAM_cell1_cutPC_512x8m81_21/m3_n36_330#
+ 018SRAM_cell1_cutPC_512x8m81_6/a_246_342# 018SRAM_cell1_cutPC_512x8m81_34/a_246_342#
+ 018SRAM_cell1_cutPC_512x8m81_6/a_246_712# 018SRAM_cell1_cutPC_512x8m81_26/a_n36_52#
+ 018SRAM_cell1_cutPC_512x8m81_59/a_n36_52# 018SRAM_cell1_cutPC_512x8m81_44/a_246_342#
+ 018SRAM_cell1_cutPC_512x8m81_22/m3_n36_330# 018SRAM_cell1_cutPC_512x8m81_44/a_246_712#
+ 018SRAM_cell1_cutPC_512x8m81_23/m3_n36_330# 018SRAM_cell1_cutPC_512x8m81_22/a_n36_52#
+ 018SRAM_cell1_cutPC_512x8m81_54/a_246_342# 018SRAM_cell1_cutPC_512x8m81_15/a_246_342#
+ 018SRAM_cell1_cutPC_512x8m81_55/a_n36_52# 018SRAM_cell1_cutPC_512x8m81_53/w_n68_622#
+ 018SRAM_cell1_cutPC_512x8m81_48/a_246_712# 018SRAM_cell1_cutPC_512x8m81_24/m3_n36_330#
+ 018SRAM_cell1_cutPC_512x8m81_25/a_246_342# 018SRAM_cell1_cutPC_512x8m81_51/a_n36_52#
+ 018SRAM_cell1_cutPC_512x8m81_37/a_246_712# 018SRAM_cell1_cutPC_512x8m81_7/a_246_342#
+ 018SRAM_cell1_cutPC_512x8m81_25/m3_n36_330# 018SRAM_cell1_cutPC_512x8m81_35/a_246_342#
+ 018SRAM_cell1_cutPC_512x8m81_2/w_n68_622# 018SRAM_cell1_cutPC_512x8m81_32/w_n68_622#
+ 018SRAM_cell1_cutPC_512x8m81_7/a_246_712# 018SRAM_cell1_cutPC_512x8m81_36/a_n36_52#
+ 018SRAM_cell1_cutPC_512x8m81_26/m3_n36_330# 018SRAM_cell1_cutPC_512x8m81_45/a_246_342#
+ 018SRAM_cell1_cutPC_512x8m81_32/a_n36_52# 018SRAM_cell1_cutPC_512x8m81_7/a_n36_52#
+ 018SRAM_cell1_cutPC_512x8m81_27/m3_n36_330# 018SRAM_cell1_cutPC_512x8m81_55/a_246_342#
+ 018SRAM_cell1_cutPC_512x8m81_16/a_246_342# 018SRAM_cell1_cutPC_512x8m81_8/a_246_712#
+ 018SRAM_cell1_cutPC_512x8m81_45/a_246_712# 018SRAM_cell1_cutPC_512x8m81_60/m3_n36_330#
+ 018SRAM_cell1_cutPC_512x8m81_28/m3_n36_330# 018SRAM_cell1_cutPC_512x8m81_26/a_246_342#
+ 018SRAM_cell1_cutPC_512x8m81_41/w_n68_622# 018SRAM_cell1_cutPC_512x8m81_17/a_n36_52#
+ 018SRAM_cell1_cutPC_512x8m81_61/a_n36_52# 018SRAM_cell1_cutPC_512x8m81_3/a_n36_52#
+ 018SRAM_cell1_cutPC_512x8m81_36/a_246_712# 018SRAM_cell1_cutPC_512x8m81_9/a_36_n42#
+ 018SRAM_cell1_cutPC_512x8m81_29/m3_n36_330# 018SRAM_cell1_cutPC_512x8m81_8/a_246_342#
+ 018SRAM_cell1_cutPC_512x8m81_36/a_246_342# 018SRAM_cell1_cutPC_512x8m81_10/m3_n36_330#
+ 018SRAM_cell1_cutPC_512x8m81_61/m3_n36_330# 018SRAM_cell1_cutPC_512x8m81_61/w_n68_622#
+ 018SRAM_cell1_cutPC_512x8m81_3/w_n68_622# 018SRAM_cell1_cutPC_512x8m81_46/a_n36_52#
+ 018SRAM_cell1_cutPC_512x8m81_13/a_n36_52# 018SRAM_cell1_cutPC_512x8m81_46/a_246_342#
+ 018SRAM_cell1_cutPC_512x8m81_62/m3_n36_330# 018SRAM_cell1_cutPC_512x8m81_11/m3_n36_330#
+ 018SRAM_cell1_cutPC_512x8m81_12/m3_n36_330# 018SRAM_cell1_cutPC_512x8m81_56/a_246_342#
+ 018SRAM_cell1_cutPC_512x8m81_17/a_246_342# 018SRAM_cell1_cutPC_512x8m81_42/a_n36_52#
+ 018SRAM_cell1_cutPC_512x8m81_63/m3_n36_330# 018SRAM_cell1_cutPC_512x8m81_51/w_n68_622#
+ 018SRAM_cell1_cutPC_512x8m81_47/a_246_712# 018SRAM_cell1_cutPC_512x8m81_13/m3_n36_330#
+ 018SRAM_cell1_cutPC_512x8m81_27/a_246_342# 018SRAM_cell1_cutPC_512x8m81_40/w_n68_622#
+ 018SRAM_cell1_cutPC_512x8m81_35/a_246_712# 018SRAM_cell1_cutPC_512x8m81_27/a_n36_52#
+ VSS 018SRAM_cell1_cutPC_512x8m81_14/m3_n36_330# 018SRAM_cell1_cutPC_512x8m81_9/a_246_342#
+ 018SRAM_cell1_cutPC_512x8m81_37/a_246_342# 018SRAM_cell1_cutPC_512x8m81_9/a_246_712#
+ 018SRAM_cell1_cutPC_512x8m81_23/a_n36_52# 018SRAM_cell1_cutPC_512x8m81_56/a_n36_52#
+ 018SRAM_cell1_cutPC_512x8m81_15/m3_n36_330# 018SRAM_cell1_cutPC_512x8m81_47/a_246_342#
+ 018SRAM_cell1_cutPC_512x8m81_42/w_n68_622# 018SRAM_cell1_cutPC_512x8m81_52/a_n36_52#
+ 018SRAM_cell1_cutPC_512x8m81_16/m3_n36_330# 018SRAM_cell1_cutPC_512x8m81_52/w_n68_622#
+ 018SRAM_cell1_cutPC_512x8m81_57/a_246_342# 018SRAM_cell1_cutPC_512x8m81_18/a_246_342#
+ 018SRAM_cell1_cutPC_512x8m81_50/w_n68_622# 018SRAM_cell1_cutPC_512x8m81_62/w_n68_622#
+ 018SRAM_cell1_cutPC_512x8m81_17/m3_n36_330# 018SRAM_cell1_cutPC_512x8m81_28/a_246_342#
+ 018SRAM_cell1_cutPC_512x8m81_39/w_n68_622# 018SRAM_cell1_cutPC_512x8m81_34/a_246_712#
+ 018SRAM_cell1_cutPC_512x8m81_37/a_n36_52# 018SRAM_cell1_cutPC_512x8m81_18/m3_n36_330#
+ 018SRAM_cell1_cutPC_512x8m81_50/m3_n36_330# 018SRAM_cell1_cutPC_512x8m81_38/a_246_342#
+ 018SRAM_cell1_cutPC_512x8m81_5/w_n68_622# 018SRAM_cell1_cutPC_512x8m81_33/a_n36_52#
+ 018SRAM_cell1_cutPC_512x8m81_8/a_n36_52# 018SRAM_cell1_cutPC_512x8m81_19/m3_n36_330#
+ 018SRAM_cell1_cutPC_512x8m81_51/m3_n36_330# 018SRAM_cell1_cutPC_512x8m81_48/a_246_342#
+ 018SRAM_cell1_cutPC_512x8m81_58/a_246_342# 018SRAM_cell1_cutPC_512x8m81_18/a_n36_52#
+ 018SRAM_cell1_cutPC_512x8m81_4/a_n36_52# 018SRAM_cell1_cutPC_512x8m81_62/a_n36_52#
+ 018SRAM_cell1_cutPC_512x8m81_52/m3_n36_330# 018SRAM_cell1_cutPC_512x8m81_19/a_246_342#
+ 018SRAM_cell1_cutPC_512x8m81_49/w_n68_622# 018SRAM_cell1_cutPC_512x8m81_43/a_246_712#
+ 018SRAM_cell1_cutPC_512x8m81_29/a_246_342# 018SRAM_cell1_cutPC_512x8m81_53/m3_n36_330#
+ 018SRAM_cell1_cutPC_512x8m81_38/w_n68_622# 018SRAM_cell1_cutPC_512x8m81_0/m3_n36_330#
+ 018SRAM_cell1_cutPC_512x8m81_47/a_n36_52# 018SRAM_cell1_cutPC_512x8m81_0/a_n36_52#
+ 018SRAM_cell1_cutPC_512x8m81_14/a_n36_52# 018SRAM_cell1_cutPC_512x8m81_33/a_246_712#
+ 018SRAM_cell1_cutPC_512x8m81_0/a_246_342# 018SRAM_cell1_cutPC_512x8m81_39/a_246_342#
+ 018SRAM_cell1_cutPC_512x8m81_1/m3_n36_330# VSUBS 018SRAM_cell1_cutPC_512x8m81_54/m3_n36_330#
+ 018SRAM_cell1_cutPC_512x8m81_6/w_n68_622# 018SRAM_cell1_cutPC_512x8m81_0/a_246_712#
X018SRAM_cell1_cutPC_512x8m81_3 018SRAM_cell1_cutPC_512x8m81_3/a_n36_52# 018SRAM_cell1_cutPC_512x8m81_9/a_444_n42#
+ 018SRAM_cell1_cutPC_512x8m81_3/a_246_342# 018SRAM_cell1_cutPC_512x8m81_3/a_246_712#
+ 018SRAM_cell1_cutPC_512x8m81_3/m3_n36_330# 018SRAM_cell1_cutPC_512x8m81_9/a_36_n42#
+ 018SRAM_cell1_cutPC_512x8m81_3/w_n68_622# VSUBS x018SRAM_cell1_cutPC_512x8m81
X018SRAM_cell1_cutPC_512x8m81_4 018SRAM_cell1_cutPC_512x8m81_4/a_n36_52# 018SRAM_cell1_cutPC_512x8m81_9/a_444_n42#
+ 018SRAM_cell1_cutPC_512x8m81_4/a_246_342# 018SRAM_cell1_cutPC_512x8m81_4/a_246_712#
+ 018SRAM_cell1_cutPC_512x8m81_4/m3_n36_330# 018SRAM_cell1_cutPC_512x8m81_9/a_36_n42#
+ 018SRAM_cell1_cutPC_512x8m81_4/w_n68_622# VSUBS x018SRAM_cell1_cutPC_512x8m81
X018SRAM_cell1_cutPC_512x8m81_5 018SRAM_cell1_cutPC_512x8m81_5/a_n36_52# 018SRAM_cell1_cutPC_512x8m81_9/a_444_n42#
+ 018SRAM_cell1_cutPC_512x8m81_5/a_246_342# 018SRAM_cell1_cutPC_512x8m81_5/a_246_712#
+ 018SRAM_cell1_cutPC_512x8m81_5/m3_n36_330# 018SRAM_cell1_cutPC_512x8m81_9/a_36_n42#
+ 018SRAM_cell1_cutPC_512x8m81_5/w_n68_622# VSUBS x018SRAM_cell1_cutPC_512x8m81
X018SRAM_cell1_cutPC_512x8m81_6 018SRAM_cell1_cutPC_512x8m81_6/a_n36_52# 018SRAM_cell1_cutPC_512x8m81_9/a_444_n42#
+ 018SRAM_cell1_cutPC_512x8m81_6/a_246_342# 018SRAM_cell1_cutPC_512x8m81_6/a_246_712#
+ 018SRAM_cell1_cutPC_512x8m81_6/m3_n36_330# 018SRAM_cell1_cutPC_512x8m81_9/a_36_n42#
+ 018SRAM_cell1_cutPC_512x8m81_6/w_n68_622# VSUBS x018SRAM_cell1_cutPC_512x8m81
X018SRAM_cell1_cutPC_512x8m81_7 018SRAM_cell1_cutPC_512x8m81_7/a_n36_52# 018SRAM_cell1_cutPC_512x8m81_9/a_444_n42#
+ 018SRAM_cell1_cutPC_512x8m81_7/a_246_342# 018SRAM_cell1_cutPC_512x8m81_7/a_246_712#
+ 018SRAM_cell1_cutPC_512x8m81_7/m3_n36_330# 018SRAM_cell1_cutPC_512x8m81_9/a_36_n42#
+ 018SRAM_cell1_cutPC_512x8m81_7/w_n68_622# VSUBS x018SRAM_cell1_cutPC_512x8m81
X018SRAM_cell1_cutPC_512x8m81_9 018SRAM_cell1_cutPC_512x8m81_9/a_n36_52# 018SRAM_cell1_cutPC_512x8m81_9/a_444_n42#
+ 018SRAM_cell1_cutPC_512x8m81_9/a_246_342# 018SRAM_cell1_cutPC_512x8m81_9/a_246_712#
+ 018SRAM_cell1_cutPC_512x8m81_9/m3_n36_330# 018SRAM_cell1_cutPC_512x8m81_9/a_36_n42#
+ 018SRAM_cell1_cutPC_512x8m81_9/w_n68_622# VSUBS x018SRAM_cell1_cutPC_512x8m81
X018SRAM_cell1_cutPC_512x8m81_8 018SRAM_cell1_cutPC_512x8m81_8/a_n36_52# 018SRAM_cell1_cutPC_512x8m81_9/a_444_n42#
+ 018SRAM_cell1_cutPC_512x8m81_8/a_246_342# 018SRAM_cell1_cutPC_512x8m81_8/a_246_712#
+ 018SRAM_cell1_cutPC_512x8m81_8/m3_n36_330# 018SRAM_cell1_cutPC_512x8m81_9/a_36_n42#
+ 018SRAM_cell1_cutPC_512x8m81_8/w_n68_622# VSUBS x018SRAM_cell1_cutPC_512x8m81
X018SRAM_cell1_cutPC_512x8m81_60 018SRAM_cell1_cutPC_512x8m81_60/a_n36_52# 018SRAM_cell1_cutPC_512x8m81_9/a_444_n42#
+ 018SRAM_cell1_cutPC_512x8m81_60/a_246_342# 018SRAM_cell1_cutPC_512x8m81_3/a_246_712#
+ 018SRAM_cell1_cutPC_512x8m81_60/m3_n36_330# 018SRAM_cell1_cutPC_512x8m81_9/a_36_n42#
+ 018SRAM_cell1_cutPC_512x8m81_3/w_n68_622# VSUBS x018SRAM_cell1_cutPC_512x8m81
X018SRAM_cell1_cutPC_512x8m81_50 018SRAM_cell1_cutPC_512x8m81_50/a_n36_52# 018SRAM_cell1_cutPC_512x8m81_9/a_444_n42#
+ 018SRAM_cell1_cutPC_512x8m81_50/a_246_342# 018SRAM_cell1_cutPC_512x8m81_50/a_246_712#
+ 018SRAM_cell1_cutPC_512x8m81_50/m3_n36_330# 018SRAM_cell1_cutPC_512x8m81_9/a_36_n42#
+ 018SRAM_cell1_cutPC_512x8m81_50/w_n68_622# VSUBS x018SRAM_cell1_cutPC_512x8m81
X018SRAM_cell1_cutPC_512x8m81_61 018SRAM_cell1_cutPC_512x8m81_61/a_n36_52# 018SRAM_cell1_cutPC_512x8m81_9/a_444_n42#
+ 018SRAM_cell1_cutPC_512x8m81_61/a_246_342# 018SRAM_cell1_cutPC_512x8m81_61/a_246_712#
+ 018SRAM_cell1_cutPC_512x8m81_61/m3_n36_330# 018SRAM_cell1_cutPC_512x8m81_9/a_36_n42#
+ 018SRAM_cell1_cutPC_512x8m81_61/w_n68_622# VSUBS x018SRAM_cell1_cutPC_512x8m81
X018SRAM_cell1_cutPC_512x8m81_40 018SRAM_cell1_cutPC_512x8m81_40/a_n36_52# 018SRAM_cell1_cutPC_512x8m81_9/a_444_n42#
+ 018SRAM_cell1_cutPC_512x8m81_40/a_246_342# 018SRAM_cell1_cutPC_512x8m81_40/a_246_712#
+ 018SRAM_cell1_cutPC_512x8m81_40/m3_n36_330# 018SRAM_cell1_cutPC_512x8m81_9/a_36_n42#
+ 018SRAM_cell1_cutPC_512x8m81_40/w_n68_622# VSUBS x018SRAM_cell1_cutPC_512x8m81
X018SRAM_cell1_cutPC_512x8m81_51 018SRAM_cell1_cutPC_512x8m81_51/a_n36_52# 018SRAM_cell1_cutPC_512x8m81_9/a_444_n42#
+ 018SRAM_cell1_cutPC_512x8m81_51/a_246_342# 018SRAM_cell1_cutPC_512x8m81_51/a_246_712#
+ 018SRAM_cell1_cutPC_512x8m81_51/m3_n36_330# 018SRAM_cell1_cutPC_512x8m81_9/a_36_n42#
+ 018SRAM_cell1_cutPC_512x8m81_51/w_n68_622# VSUBS x018SRAM_cell1_cutPC_512x8m81
X018SRAM_cell1_cutPC_512x8m81_62 018SRAM_cell1_cutPC_512x8m81_62/a_n36_52# 018SRAM_cell1_cutPC_512x8m81_9/a_444_n42#
+ 018SRAM_cell1_cutPC_512x8m81_62/a_246_342# 018SRAM_cell1_cutPC_512x8m81_62/a_246_712#
+ 018SRAM_cell1_cutPC_512x8m81_62/m3_n36_330# 018SRAM_cell1_cutPC_512x8m81_9/a_36_n42#
+ 018SRAM_cell1_cutPC_512x8m81_62/w_n68_622# VSUBS x018SRAM_cell1_cutPC_512x8m81
X018SRAM_cell1_cutPC_512x8m81_30 018SRAM_cell1_cutPC_512x8m81_30/a_n36_52# 018SRAM_cell1_cutPC_512x8m81_9/a_444_n42#
+ 018SRAM_cell1_cutPC_512x8m81_30/a_246_342# 018SRAM_cell1_cutPC_512x8m81_32/a_246_712#
+ 018SRAM_cell1_cutPC_512x8m81_30/m3_n36_330# 018SRAM_cell1_cutPC_512x8m81_9/a_36_n42#
+ 018SRAM_cell1_cutPC_512x8m81_32/w_n68_622# VSUBS x018SRAM_cell1_cutPC_512x8m81
X018SRAM_cell1_cutPC_512x8m81_41 018SRAM_cell1_cutPC_512x8m81_41/a_n36_52# 018SRAM_cell1_cutPC_512x8m81_9/a_444_n42#
+ 018SRAM_cell1_cutPC_512x8m81_41/a_246_342# 018SRAM_cell1_cutPC_512x8m81_41/a_246_712#
+ 018SRAM_cell1_cutPC_512x8m81_41/m3_n36_330# 018SRAM_cell1_cutPC_512x8m81_9/a_36_n42#
+ 018SRAM_cell1_cutPC_512x8m81_41/w_n68_622# VSUBS x018SRAM_cell1_cutPC_512x8m81
X018SRAM_cell1_cutPC_512x8m81_52 018SRAM_cell1_cutPC_512x8m81_52/a_n36_52# 018SRAM_cell1_cutPC_512x8m81_9/a_444_n42#
+ 018SRAM_cell1_cutPC_512x8m81_52/a_246_342# 018SRAM_cell1_cutPC_512x8m81_52/a_246_712#
+ 018SRAM_cell1_cutPC_512x8m81_52/m3_n36_330# 018SRAM_cell1_cutPC_512x8m81_9/a_36_n42#
+ 018SRAM_cell1_cutPC_512x8m81_52/w_n68_622# VSUBS x018SRAM_cell1_cutPC_512x8m81
X018SRAM_cell1_cutPC_512x8m81_63 018SRAM_cell1_cutPC_512x8m81_63/a_n36_52# 018SRAM_cell1_cutPC_512x8m81_9/a_444_n42#
+ 018SRAM_cell1_cutPC_512x8m81_63/a_246_342# 018SRAM_cell1_cutPC_512x8m81_2/a_246_712#
+ 018SRAM_cell1_cutPC_512x8m81_63/m3_n36_330# 018SRAM_cell1_cutPC_512x8m81_9/a_36_n42#
+ 018SRAM_cell1_cutPC_512x8m81_2/w_n68_622# VSUBS x018SRAM_cell1_cutPC_512x8m81
X018SRAM_cell1_cutPC_512x8m81_42 018SRAM_cell1_cutPC_512x8m81_42/a_n36_52# 018SRAM_cell1_cutPC_512x8m81_9/a_444_n42#
+ 018SRAM_cell1_cutPC_512x8m81_42/a_246_342# 018SRAM_cell1_cutPC_512x8m81_42/a_246_712#
+ 018SRAM_cell1_cutPC_512x8m81_42/m3_n36_330# 018SRAM_cell1_cutPC_512x8m81_9/a_36_n42#
+ 018SRAM_cell1_cutPC_512x8m81_42/w_n68_622# VSUBS x018SRAM_cell1_cutPC_512x8m81
X018SRAM_cell1_cutPC_512x8m81_20 018SRAM_cell1_cutPC_512x8m81_20/a_n36_52# 018SRAM_cell1_cutPC_512x8m81_9/a_444_n42#
+ 018SRAM_cell1_cutPC_512x8m81_20/a_246_342# 018SRAM_cell1_cutPC_512x8m81_42/a_246_712#
+ 018SRAM_cell1_cutPC_512x8m81_20/m3_n36_330# 018SRAM_cell1_cutPC_512x8m81_9/a_36_n42#
+ 018SRAM_cell1_cutPC_512x8m81_42/w_n68_622# VSUBS x018SRAM_cell1_cutPC_512x8m81
X018SRAM_cell1_cutPC_512x8m81_53 018SRAM_cell1_cutPC_512x8m81_53/a_n36_52# 018SRAM_cell1_cutPC_512x8m81_9/a_444_n42#
+ 018SRAM_cell1_cutPC_512x8m81_53/a_246_342# 018SRAM_cell1_cutPC_512x8m81_53/a_246_712#
+ 018SRAM_cell1_cutPC_512x8m81_53/m3_n36_330# 018SRAM_cell1_cutPC_512x8m81_9/a_36_n42#
+ 018SRAM_cell1_cutPC_512x8m81_53/w_n68_622# VSUBS x018SRAM_cell1_cutPC_512x8m81
X018SRAM_cell1_cutPC_512x8m81_31 018SRAM_cell1_cutPC_512x8m81_31/a_n36_52# 018SRAM_cell1_cutPC_512x8m81_9/a_444_n42#
+ 018SRAM_cell1_cutPC_512x8m81_31/a_246_342# 018SRAM_cell1_cutPC_512x8m81_61/a_246_712#
+ 018SRAM_cell1_cutPC_512x8m81_31/m3_n36_330# 018SRAM_cell1_cutPC_512x8m81_9/a_36_n42#
+ 018SRAM_cell1_cutPC_512x8m81_61/w_n68_622# VSUBS x018SRAM_cell1_cutPC_512x8m81
X018SRAM_cell1_cutPC_512x8m81_32 018SRAM_cell1_cutPC_512x8m81_32/a_n36_52# 018SRAM_cell1_cutPC_512x8m81_9/a_444_n42#
+ 018SRAM_cell1_cutPC_512x8m81_32/a_246_342# 018SRAM_cell1_cutPC_512x8m81_32/a_246_712#
+ 018SRAM_cell1_cutPC_512x8m81_32/m3_n36_330# 018SRAM_cell1_cutPC_512x8m81_9/a_36_n42#
+ 018SRAM_cell1_cutPC_512x8m81_32/w_n68_622# VSUBS x018SRAM_cell1_cutPC_512x8m81
X018SRAM_cell1_cutPC_512x8m81_21 018SRAM_cell1_cutPC_512x8m81_21/a_n36_52# 018SRAM_cell1_cutPC_512x8m81_9/a_444_n42#
+ 018SRAM_cell1_cutPC_512x8m81_21/a_246_342# 018SRAM_cell1_cutPC_512x8m81_41/a_246_712#
+ 018SRAM_cell1_cutPC_512x8m81_21/m3_n36_330# 018SRAM_cell1_cutPC_512x8m81_9/a_36_n42#
+ 018SRAM_cell1_cutPC_512x8m81_41/w_n68_622# VSUBS x018SRAM_cell1_cutPC_512x8m81
X018SRAM_cell1_cutPC_512x8m81_43 018SRAM_cell1_cutPC_512x8m81_43/a_n36_52# 018SRAM_cell1_cutPC_512x8m81_9/a_444_n42#
+ 018SRAM_cell1_cutPC_512x8m81_43/a_246_342# 018SRAM_cell1_cutPC_512x8m81_43/a_246_712#
+ 018SRAM_cell1_cutPC_512x8m81_43/m3_n36_330# 018SRAM_cell1_cutPC_512x8m81_9/a_36_n42#
+ 018SRAM_cell1_cutPC_512x8m81_43/w_n68_622# VSUBS x018SRAM_cell1_cutPC_512x8m81
X018SRAM_cell1_cutPC_512x8m81_10 018SRAM_cell1_cutPC_512x8m81_10/a_n36_52# 018SRAM_cell1_cutPC_512x8m81_9/a_444_n42#
+ 018SRAM_cell1_cutPC_512x8m81_10/a_246_342# 018SRAM_cell1_cutPC_512x8m81_53/a_246_712#
+ 018SRAM_cell1_cutPC_512x8m81_10/m3_n36_330# 018SRAM_cell1_cutPC_512x8m81_9/a_36_n42#
+ 018SRAM_cell1_cutPC_512x8m81_53/w_n68_622# VSUBS x018SRAM_cell1_cutPC_512x8m81
X018SRAM_cell1_cutPC_512x8m81_54 018SRAM_cell1_cutPC_512x8m81_54/a_n36_52# 018SRAM_cell1_cutPC_512x8m81_9/a_444_n42#
+ 018SRAM_cell1_cutPC_512x8m81_54/a_246_342# 018SRAM_cell1_cutPC_512x8m81_9/a_246_712#
+ 018SRAM_cell1_cutPC_512x8m81_54/m3_n36_330# 018SRAM_cell1_cutPC_512x8m81_9/a_36_n42#
+ 018SRAM_cell1_cutPC_512x8m81_9/w_n68_622# VSUBS x018SRAM_cell1_cutPC_512x8m81
X018SRAM_cell1_cutPC_512x8m81_33 018SRAM_cell1_cutPC_512x8m81_33/a_n36_52# 018SRAM_cell1_cutPC_512x8m81_9/a_444_n42#
+ 018SRAM_cell1_cutPC_512x8m81_33/a_246_342# 018SRAM_cell1_cutPC_512x8m81_33/a_246_712#
+ 018SRAM_cell1_cutPC_512x8m81_33/m3_n36_330# 018SRAM_cell1_cutPC_512x8m81_9/a_36_n42#
+ 018SRAM_cell1_cutPC_512x8m81_33/w_n68_622# VSUBS x018SRAM_cell1_cutPC_512x8m81
X018SRAM_cell1_cutPC_512x8m81_22 018SRAM_cell1_cutPC_512x8m81_22/a_n36_52# 018SRAM_cell1_cutPC_512x8m81_9/a_444_n42#
+ 018SRAM_cell1_cutPC_512x8m81_22/a_246_342# 018SRAM_cell1_cutPC_512x8m81_40/a_246_712#
+ 018SRAM_cell1_cutPC_512x8m81_22/m3_n36_330# 018SRAM_cell1_cutPC_512x8m81_9/a_36_n42#
+ 018SRAM_cell1_cutPC_512x8m81_40/w_n68_622# VSUBS x018SRAM_cell1_cutPC_512x8m81
X018SRAM_cell1_cutPC_512x8m81_44 018SRAM_cell1_cutPC_512x8m81_44/a_n36_52# 018SRAM_cell1_cutPC_512x8m81_9/a_444_n42#
+ 018SRAM_cell1_cutPC_512x8m81_44/a_246_342# 018SRAM_cell1_cutPC_512x8m81_44/a_246_712#
+ 018SRAM_cell1_cutPC_512x8m81_44/m3_n36_330# 018SRAM_cell1_cutPC_512x8m81_9/a_36_n42#
+ 018SRAM_cell1_cutPC_512x8m81_44/w_n68_622# VSUBS x018SRAM_cell1_cutPC_512x8m81
X018SRAM_cell1_cutPC_512x8m81_11 018SRAM_cell1_cutPC_512x8m81_11/a_n36_52# 018SRAM_cell1_cutPC_512x8m81_9/a_444_n42#
+ 018SRAM_cell1_cutPC_512x8m81_11/a_246_342# 018SRAM_cell1_cutPC_512x8m81_52/a_246_712#
+ 018SRAM_cell1_cutPC_512x8m81_11/m3_n36_330# 018SRAM_cell1_cutPC_512x8m81_9/a_36_n42#
+ 018SRAM_cell1_cutPC_512x8m81_52/w_n68_622# VSUBS x018SRAM_cell1_cutPC_512x8m81
X018SRAM_cell1_cutPC_512x8m81_55 018SRAM_cell1_cutPC_512x8m81_55/a_n36_52# 018SRAM_cell1_cutPC_512x8m81_9/a_444_n42#
+ 018SRAM_cell1_cutPC_512x8m81_55/a_246_342# 018SRAM_cell1_cutPC_512x8m81_8/a_246_712#
+ 018SRAM_cell1_cutPC_512x8m81_55/m3_n36_330# 018SRAM_cell1_cutPC_512x8m81_9/a_36_n42#
+ 018SRAM_cell1_cutPC_512x8m81_8/w_n68_622# VSUBS x018SRAM_cell1_cutPC_512x8m81
X018SRAM_cell1_cutPC_512x8m81_34 018SRAM_cell1_cutPC_512x8m81_34/a_n36_52# 018SRAM_cell1_cutPC_512x8m81_9/a_444_n42#
+ 018SRAM_cell1_cutPC_512x8m81_34/a_246_342# 018SRAM_cell1_cutPC_512x8m81_34/a_246_712#
+ 018SRAM_cell1_cutPC_512x8m81_34/m3_n36_330# 018SRAM_cell1_cutPC_512x8m81_9/a_36_n42#
+ 018SRAM_cell1_cutPC_512x8m81_34/w_n68_622# VSUBS x018SRAM_cell1_cutPC_512x8m81
X018SRAM_cell1_cutPC_512x8m81_23 018SRAM_cell1_cutPC_512x8m81_23/a_n36_52# 018SRAM_cell1_cutPC_512x8m81_9/a_444_n42#
+ 018SRAM_cell1_cutPC_512x8m81_23/a_246_342# 018SRAM_cell1_cutPC_512x8m81_39/a_246_712#
+ 018SRAM_cell1_cutPC_512x8m81_23/m3_n36_330# 018SRAM_cell1_cutPC_512x8m81_9/a_36_n42#
+ 018SRAM_cell1_cutPC_512x8m81_39/w_n68_622# VSUBS x018SRAM_cell1_cutPC_512x8m81
X018SRAM_cell1_cutPC_512x8m81_45 018SRAM_cell1_cutPC_512x8m81_45/a_n36_52# 018SRAM_cell1_cutPC_512x8m81_9/a_444_n42#
+ 018SRAM_cell1_cutPC_512x8m81_45/a_246_342# 018SRAM_cell1_cutPC_512x8m81_45/a_246_712#
+ 018SRAM_cell1_cutPC_512x8m81_45/m3_n36_330# 018SRAM_cell1_cutPC_512x8m81_9/a_36_n42#
+ 018SRAM_cell1_cutPC_512x8m81_45/w_n68_622# VSUBS x018SRAM_cell1_cutPC_512x8m81
X018SRAM_cell1_cutPC_512x8m81_12 018SRAM_cell1_cutPC_512x8m81_12/a_n36_52# 018SRAM_cell1_cutPC_512x8m81_9/a_444_n42#
+ 018SRAM_cell1_cutPC_512x8m81_12/a_246_342# 018SRAM_cell1_cutPC_512x8m81_51/a_246_712#
+ 018SRAM_cell1_cutPC_512x8m81_12/m3_n36_330# 018SRAM_cell1_cutPC_512x8m81_9/a_36_n42#
+ 018SRAM_cell1_cutPC_512x8m81_51/w_n68_622# VSUBS x018SRAM_cell1_cutPC_512x8m81
X018SRAM_cell1_cutPC_512x8m81_56 018SRAM_cell1_cutPC_512x8m81_56/a_n36_52# 018SRAM_cell1_cutPC_512x8m81_9/a_444_n42#
+ 018SRAM_cell1_cutPC_512x8m81_56/a_246_342# 018SRAM_cell1_cutPC_512x8m81_7/a_246_712#
+ 018SRAM_cell1_cutPC_512x8m81_56/m3_n36_330# 018SRAM_cell1_cutPC_512x8m81_9/a_36_n42#
+ 018SRAM_cell1_cutPC_512x8m81_7/w_n68_622# VSUBS x018SRAM_cell1_cutPC_512x8m81
X018SRAM_cell1_cutPC_512x8m81_35 018SRAM_cell1_cutPC_512x8m81_35/a_n36_52# 018SRAM_cell1_cutPC_512x8m81_9/a_444_n42#
+ 018SRAM_cell1_cutPC_512x8m81_35/a_246_342# 018SRAM_cell1_cutPC_512x8m81_35/a_246_712#
+ 018SRAM_cell1_cutPC_512x8m81_35/m3_n36_330# 018SRAM_cell1_cutPC_512x8m81_9/a_36_n42#
+ 018SRAM_cell1_cutPC_512x8m81_35/w_n68_622# VSUBS x018SRAM_cell1_cutPC_512x8m81
X018SRAM_cell1_cutPC_512x8m81_36 018SRAM_cell1_cutPC_512x8m81_36/a_n36_52# 018SRAM_cell1_cutPC_512x8m81_9/a_444_n42#
+ 018SRAM_cell1_cutPC_512x8m81_36/a_246_342# 018SRAM_cell1_cutPC_512x8m81_36/a_246_712#
+ 018SRAM_cell1_cutPC_512x8m81_36/m3_n36_330# 018SRAM_cell1_cutPC_512x8m81_9/a_36_n42#
+ 018SRAM_cell1_cutPC_512x8m81_36/w_n68_622# VSUBS x018SRAM_cell1_cutPC_512x8m81
X018SRAM_cell1_cutPC_512x8m81_25 018SRAM_cell1_cutPC_512x8m81_25/a_n36_52# 018SRAM_cell1_cutPC_512x8m81_9/a_444_n42#
+ 018SRAM_cell1_cutPC_512x8m81_25/a_246_342# 018SRAM_cell1_cutPC_512x8m81_37/a_246_712#
+ 018SRAM_cell1_cutPC_512x8m81_25/m3_n36_330# 018SRAM_cell1_cutPC_512x8m81_9/a_36_n42#
+ 018SRAM_cell1_cutPC_512x8m81_37/w_n68_622# VSUBS x018SRAM_cell1_cutPC_512x8m81
X018SRAM_cell1_cutPC_512x8m81_24 018SRAM_cell1_cutPC_512x8m81_24/a_n36_52# 018SRAM_cell1_cutPC_512x8m81_9/a_444_n42#
+ 018SRAM_cell1_cutPC_512x8m81_24/a_246_342# 018SRAM_cell1_cutPC_512x8m81_38/a_246_712#
+ 018SRAM_cell1_cutPC_512x8m81_24/m3_n36_330# 018SRAM_cell1_cutPC_512x8m81_9/a_36_n42#
+ 018SRAM_cell1_cutPC_512x8m81_38/w_n68_622# VSUBS x018SRAM_cell1_cutPC_512x8m81
X018SRAM_cell1_cutPC_512x8m81_47 018SRAM_cell1_cutPC_512x8m81_47/a_n36_52# 018SRAM_cell1_cutPC_512x8m81_9/a_444_n42#
+ 018SRAM_cell1_cutPC_512x8m81_47/a_246_342# 018SRAM_cell1_cutPC_512x8m81_47/a_246_712#
+ 018SRAM_cell1_cutPC_512x8m81_47/m3_n36_330# 018SRAM_cell1_cutPC_512x8m81_9/a_36_n42#
+ 018SRAM_cell1_cutPC_512x8m81_47/w_n68_622# VSUBS x018SRAM_cell1_cutPC_512x8m81
X018SRAM_cell1_cutPC_512x8m81_46 018SRAM_cell1_cutPC_512x8m81_46/a_n36_52# 018SRAM_cell1_cutPC_512x8m81_9/a_444_n42#
+ 018SRAM_cell1_cutPC_512x8m81_46/a_246_342# 018SRAM_cell1_cutPC_512x8m81_0/a_246_712#
+ 018SRAM_cell1_cutPC_512x8m81_46/m3_n36_330# 018SRAM_cell1_cutPC_512x8m81_9/a_36_n42#
+ 018SRAM_cell1_cutPC_512x8m81_0/w_n68_622# VSUBS x018SRAM_cell1_cutPC_512x8m81
X018SRAM_cell1_cutPC_512x8m81_14 018SRAM_cell1_cutPC_512x8m81_14/a_n36_52# 018SRAM_cell1_cutPC_512x8m81_9/a_444_n42#
+ 018SRAM_cell1_cutPC_512x8m81_14/a_246_342# 018SRAM_cell1_cutPC_512x8m81_49/a_246_712#
+ 018SRAM_cell1_cutPC_512x8m81_14/m3_n36_330# 018SRAM_cell1_cutPC_512x8m81_9/a_36_n42#
+ 018SRAM_cell1_cutPC_512x8m81_49/w_n68_622# VSUBS x018SRAM_cell1_cutPC_512x8m81
X018SRAM_cell1_cutPC_512x8m81_13 018SRAM_cell1_cutPC_512x8m81_13/a_n36_52# 018SRAM_cell1_cutPC_512x8m81_9/a_444_n42#
+ 018SRAM_cell1_cutPC_512x8m81_13/a_246_342# 018SRAM_cell1_cutPC_512x8m81_50/a_246_712#
+ 018SRAM_cell1_cutPC_512x8m81_13/m3_n36_330# 018SRAM_cell1_cutPC_512x8m81_9/a_36_n42#
+ 018SRAM_cell1_cutPC_512x8m81_50/w_n68_622# VSUBS x018SRAM_cell1_cutPC_512x8m81
X018SRAM_cell1_cutPC_512x8m81_57 018SRAM_cell1_cutPC_512x8m81_57/a_n36_52# 018SRAM_cell1_cutPC_512x8m81_9/a_444_n42#
+ 018SRAM_cell1_cutPC_512x8m81_57/a_246_342# 018SRAM_cell1_cutPC_512x8m81_6/a_246_712#
+ 018SRAM_cell1_cutPC_512x8m81_57/m3_n36_330# 018SRAM_cell1_cutPC_512x8m81_9/a_36_n42#
+ 018SRAM_cell1_cutPC_512x8m81_6/w_n68_622# VSUBS x018SRAM_cell1_cutPC_512x8m81
X018SRAM_cell1_cutPC_512x8m81_58 018SRAM_cell1_cutPC_512x8m81_58/a_n36_52# 018SRAM_cell1_cutPC_512x8m81_9/a_444_n42#
+ 018SRAM_cell1_cutPC_512x8m81_58/a_246_342# 018SRAM_cell1_cutPC_512x8m81_5/a_246_712#
+ 018SRAM_cell1_cutPC_512x8m81_58/m3_n36_330# 018SRAM_cell1_cutPC_512x8m81_9/a_36_n42#
+ 018SRAM_cell1_cutPC_512x8m81_5/w_n68_622# VSUBS x018SRAM_cell1_cutPC_512x8m81
X018SRAM_cell1_cutPC_512x8m81_26 018SRAM_cell1_cutPC_512x8m81_26/a_n36_52# 018SRAM_cell1_cutPC_512x8m81_9/a_444_n42#
+ 018SRAM_cell1_cutPC_512x8m81_26/a_246_342# 018SRAM_cell1_cutPC_512x8m81_36/a_246_712#
+ 018SRAM_cell1_cutPC_512x8m81_26/m3_n36_330# 018SRAM_cell1_cutPC_512x8m81_9/a_36_n42#