* NGSPICE file created from gf180mcu_fd_ip_sram__sram64x8m8wm1.ext - technology: gf180mcuA

.subckt nmos_5p0431058998329_64x8m81 D a_0_n44# S VSUBS
X0 D a_0_n44# S VSUBS nmos_6p0 w=0.96u l=0.6u
.ends

.subckt nmos_1p2$$46563372_64x8m81 nmos_5p0431058998329_64x8m81_0/S nmos_5p0431058998329_64x8m81_0/D
+ a_n31_n74# VSUBS
Xnmos_5p0431058998329_64x8m81_0 nmos_5p0431058998329_64x8m81_0/D a_n31_n74# nmos_5p0431058998329_64x8m81_0/S
+ VSUBS nmos_5p0431058998329_64x8m81
.ends

.subckt pmos_5p04310589983278_64x8m81 w_n208_n120# D a_0_n44# S
X0 D a_0_n44# S w_n208_n120# pmos_6p0 w=0.9u l=1.2u
.ends

.subckt nmos_5p04310589983298_64x8m81 D a_0_n44# S VSUBS
X0 D a_0_n44# S VSUBS nmos_6p0 w=0.6u l=1u
.ends

.subckt pmos_5p04310589983291_64x8m81 w_n208_n120# D a_0_n44# S
X0 D a_0_n44# S w_n208_n120# pmos_6p0 w=22.68u l=0.6u
.ends

.subckt pmos_1p2$$47815724_64x8m81 pmos_5p04310589983291_64x8m81_0/D w_n286_n141#
+ pmos_5p04310589983291_64x8m81_0/S a_n31_n74#
Xpmos_5p04310589983291_64x8m81_0 w_n286_n141# pmos_5p04310589983291_64x8m81_0/D a_n31_n74#
+ pmos_5p04310589983291_64x8m81_0/S pmos_5p04310589983291_64x8m81
.ends

.subckt pmos_5p04310589983287_64x8m81 w_n208_n120# D a_0_n44# S
X0 D a_0_n44# S w_n208_n120# pmos_6p0 w=1.89u l=0.6u
.ends

.subckt pmos_5p04310589983292_64x8m81 w_n208_n120# D a_2016_n44# a_0_n44# a_896_n44#
+ a_672_n44# S a_1792_n44# a_448_n44# a_224_n44# a_1568_n44# a_1344_n44# a_1120_n44#
X0 S a_224_n44# D w_n208_n120# pmos_6p0 w=12.48u l=0.6u
X1 D a_448_n44# S w_n208_n120# pmos_6p0 w=12.48u l=0.6u
X2 D a_0_n44# S w_n208_n120# pmos_6p0 w=12.48u l=0.6u
X3 S a_672_n44# D w_n208_n120# pmos_6p0 w=12.48u l=0.6u
X4 D a_896_n44# S w_n208_n120# pmos_6p0 w=12.48u l=0.6u
X5 S a_2016_n44# D w_n208_n120# pmos_6p0 w=12.48u l=0.6u
X6 S a_1120_n44# D w_n208_n120# pmos_6p0 w=12.48u l=0.6u
X7 D a_1344_n44# S w_n208_n120# pmos_6p0 w=12.48u l=0.6u
X8 S a_1568_n44# D w_n208_n120# pmos_6p0 w=12.48u l=0.6u
X9 D a_1792_n44# S w_n208_n120# pmos_6p0 w=12.48u l=0.6u
.ends

.subckt nmos_5p04310589983293_64x8m81 D a_0_n44# S VSUBS
X0 D a_0_n44# S VSUBS nmos_6p0 w=0.6u l=1.2u
.ends

.subckt pmos_5p04310589983296_64x8m81 a_2464_n44# w_n208_n120# D a_2240_n44# a_3584_n44#
+ a_2016_n44# a_3360_n44# a_3136_n44# a_2912_n44# a_0_n44# a_4256_n44# a_4032_n44#
+ a_3808_n44# a_896_n44# a_672_n44# S a_1792_n44# a_448_n44# a_224_n44# a_1568_n44#
+ a_1344_n44# a_1120_n44# a_2688_n44#
X0 D a_4032_n44# S w_n208_n120# pmos_6p0 w=18.37u l=0.6u
X1 S a_4256_n44# D w_n208_n120# pmos_6p0 w=18.37u l=0.6u
X2 S a_224_n44# D w_n208_n120# pmos_6p0 w=18.37u l=0.6u
X3 D a_448_n44# S w_n208_n120# pmos_6p0 w=18.37u l=0.6u
X4 D a_0_n44# S w_n208_n120# pmos_6p0 w=18.37u l=0.6u
X5 S a_2912_n44# D w_n208_n120# pmos_6p0 w=18.37u l=0.6u
X6 D a_3136_n44# S w_n208_n120# pmos_6p0 w=18.37u l=0.6u
X7 S a_672_n44# D w_n208_n120# pmos_6p0 w=18.37u l=0.6u
X8 D a_896_n44# S w_n208_n120# pmos_6p0 w=18.37u l=0.6u
X9 S a_3360_n44# D w_n208_n120# pmos_6p0 w=18.37u l=0.6u
X10 S a_2016_n44# D w_n208_n120# pmos_6p0 w=18.37u l=0.6u
X11 D a_3584_n44# S w_n208_n120# pmos_6p0 w=18.37u l=0.6u
X12 D a_2240_n44# S w_n208_n120# pmos_6p0 w=18.37u l=0.6u
X13 S a_2464_n44# D w_n208_n120# pmos_6p0 w=18.37u l=0.6u
X14 D a_2688_n44# S w_n208_n120# pmos_6p0 w=18.37u l=0.6u
X15 S a_1120_n44# D w_n208_n120# pmos_6p0 w=18.37u l=0.6u
X16 D a_1344_n44# S w_n208_n120# pmos_6p0 w=18.37u l=0.6u
X17 S a_1568_n44# D w_n208_n120# pmos_6p0 w=18.37u l=0.6u
X18 D a_1792_n44# S w_n208_n120# pmos_6p0 w=18.37u l=0.6u
X19 S a_3808_n44# D w_n208_n120# pmos_6p0 w=18.37u l=0.6u
.ends

.subckt nmos_5p04310589983297_64x8m81 D a_0_n44# S VSUBS
X0 D a_0_n44# S VSUBS nmos_6p0 w=0.75u l=0.6u
.ends

.subckt pmos_5p0431058998323_64x8m81 w_n208_n120# D a_0_n44# S a_224_n44#
X0 S a_224_n44# D w_n208_n120# pmos_6p0 w=1.14u l=0.6u
X1 D a_0_n44# S w_n208_n120# pmos_6p0 w=1.14u l=0.6u
.ends

.subckt pmos_1p2$$46273580_64x8m81 pmos_5p0431058998323_64x8m81_0/D a_193_n74# w_n286_n142#
+ pmos_5p0431058998323_64x8m81_0/S a_n31_n74#
Xpmos_5p0431058998323_64x8m81_0 w_n286_n142# pmos_5p0431058998323_64x8m81_0/D a_n31_n74#
+ pmos_5p0431058998323_64x8m81_0/S a_193_n74# pmos_5p0431058998323_64x8m81
.ends

.subckt nmos_5p0431058998325_64x8m81 D a_0_n44# S VSUBS
X0 D a_0_n44# S VSUBS nmos_6p0 w=2.27u l=0.6u
.ends

.subckt nmos_1p2$$46551084_64x8m81 nmos_5p0431058998325_64x8m81_0/D a_n31_n73# nmos_5p0431058998325_64x8m81_0/S
+ VSUBS
Xnmos_5p0431058998325_64x8m81_0 nmos_5p0431058998325_64x8m81_0/D a_n31_n73# nmos_5p0431058998325_64x8m81_0/S
+ VSUBS nmos_5p0431058998325_64x8m81
.ends

.subckt pmos_5p04310589983241_64x8m81 w_n208_n120# D a_0_n44# S
X0 D a_0_n44# S w_n208_n120# pmos_6p0 w=0.96u l=0.6u
.ends

.subckt nmos_5p04310589983279_64x8m81 D a_2016_n44# a_0_n44# a_896_n44# a_672_n44#
+ S a_1792_n44# a_448_n44# a_224_n44# a_1568_n44# a_1344_n44# a_1120_n44# VSUBS
X0 S a_224_n44# D VSUBS nmos_6p0 w=1.92u l=0.6u
X1 D a_448_n44# S VSUBS nmos_6p0 w=1.92u l=0.6u
X2 D a_0_n44# S VSUBS nmos_6p0 w=1.92u l=0.6u
X3 S a_672_n44# D VSUBS nmos_6p0 w=1.92u l=0.6u
X4 D a_896_n44# S VSUBS nmos_6p0 w=1.92u l=0.6u
X5 S a_2016_n44# D VSUBS nmos_6p0 w=1.92u l=0.6u
X6 S a_1120_n44# D VSUBS nmos_6p0 w=1.92u l=0.6u
X7 D a_1344_n44# S VSUBS nmos_6p0 w=1.92u l=0.6u
X8 S a_1568_n44# D VSUBS nmos_6p0 w=1.92u l=0.6u
X9 D a_1792_n44# S VSUBS nmos_6p0 w=1.92u l=0.6u
.ends

.subckt pmos_5p04310589983214_64x8m81 w_n208_n120# D a_0_n44# S
X0 D a_0_n44# S w_n208_n120# pmos_6p0 w=2.27u l=0.6u
.ends

.subckt pmos_1p2$$202586156_64x8m81 pmos_5p04310589983214_64x8m81_0/S w_n286_n141#
+ pmos_5p04310589983214_64x8m81_0/D a_n31_n74#
Xpmos_5p04310589983214_64x8m81_0 w_n286_n141# pmos_5p04310589983214_64x8m81_0/D a_n31_n74#
+ pmos_5p04310589983214_64x8m81_0/S pmos_5p04310589983214_64x8m81
.ends

.subckt nmos_5p04310589983280_64x8m81 D a_0_n44# S a_224_n44# VSUBS
X0 S a_224_n44# D VSUBS nmos_6p0 w=1.2u l=0.6u
X1 D a_0_n44# S VSUBS nmos_6p0 w=1.2u l=0.6u
.ends

.subckt pmos_5p04310589983283_64x8m81 w_n208_n120# D a_0_n44# a_896_n44# a_672_n44#
+ S a_448_n44# a_224_n44# a_1344_n44# a_1120_n44#
X0 S a_224_n44# D w_n208_n120# pmos_6p0 w=2.2u l=0.6u
X1 D a_448_n44# S w_n208_n120# pmos_6p0 w=2.2u l=0.6u
X2 D a_0_n44# S w_n208_n120# pmos_6p0 w=2.2u l=0.6u
X3 S a_672_n44# D w_n208_n120# pmos_6p0 w=2.2u l=0.6u
X4 D a_896_n44# S w_n208_n120# pmos_6p0 w=2.2u l=0.6u
X5 S a_1120_n44# D w_n208_n120# pmos_6p0 w=2.2u l=0.6u
X6 D a_1344_n44# S w_n208_n120# pmos_6p0 w=2.2u l=0.6u
.ends

.subckt pmos_5p04310589983282_64x8m81 w_n208_n120# D a_0_n44# a_896_n44# a_672_n44#
+ S a_448_n44# a_224_n44# a_1120_n44#
X0 S a_224_n44# D w_n208_n120# pmos_6p0 w=2.48u l=0.6u
X1 D a_448_n44# S w_n208_n120# pmos_6p0 w=2.48u l=0.6u
X2 D a_0_n44# S w_n208_n120# pmos_6p0 w=2.48u l=0.6u
X3 S a_672_n44# D w_n208_n120# pmos_6p0 w=2.48u l=0.6u
X4 D a_896_n44# S w_n208_n120# pmos_6p0 w=2.48u l=0.6u
X5 S a_1120_n44# D w_n208_n120# pmos_6p0 w=2.48u l=0.6u
.ends

.subckt nmos_5p04310589983239_64x8m81 D a_0_n44# S a_224_n44# VSUBS
X0 S a_224_n44# D VSUBS nmos_6p0 w=2.27u l=0.6u
X1 D a_0_n44# S VSUBS nmos_6p0 w=2.27u l=0.6u
.ends

.subckt pmos_5p04310589983220_64x8m81 w_n208_n120# D a_0_n44# S a_224_n44#
X0 S a_224_n44# D w_n208_n120# pmos_6p0 w=2.27u l=0.6u
X1 D a_0_n44# S w_n208_n120# pmos_6p0 w=2.27u l=0.6u
.ends

.subckt pmos_1p2$$202587180_64x8m81 pmos_5p04310589983214_64x8m81_0/S w_n286_n141#
+ pmos_5p04310589983214_64x8m81_0/D a_n31_n74#
Xpmos_5p04310589983214_64x8m81_0 w_n286_n141# pmos_5p04310589983214_64x8m81_0/D a_n31_n74#
+ pmos_5p04310589983214_64x8m81_0/S pmos_5p04310589983214_64x8m81
.ends

.subckt pmos_5p04310589983281_64x8m81 w_n208_n120# D a_2016_n44# a_0_n44# a_896_n44#
+ a_672_n44# S a_1792_n44# a_448_n44# a_224_n44# a_1568_n44# a_1344_n44# a_1120_n44#
X0 S a_224_n44# D w_n208_n120# pmos_6p0 w=4.72u l=0.6u
X1 D a_448_n44# S w_n208_n120# pmos_6p0 w=4.72u l=0.6u
X2 D a_0_n44# S w_n208_n120# pmos_6p0 w=4.72u l=0.6u
X3 S a_672_n44# D w_n208_n120# pmos_6p0 w=4.72u l=0.6u
X4 D a_896_n44# S w_n208_n120# pmos_6p0 w=4.72u l=0.6u
X5 S a_2016_n44# D w_n208_n120# pmos_6p0 w=4.72u l=0.6u
X6 S a_1120_n44# D w_n208_n120# pmos_6p0 w=4.72u l=0.6u
X7 D a_1344_n44# S w_n208_n120# pmos_6p0 w=4.72u l=0.6u
X8 S a_1568_n44# D w_n208_n120# pmos_6p0 w=4.72u l=0.6u
X9 D a_1792_n44# S w_n208_n120# pmos_6p0 w=4.72u l=0.6u
.ends

.subckt nmos_5p04310589983286_64x8m81 D a_0_n44# S a_448_n44# a_224_n44# VSUBS
X0 S a_224_n44# D VSUBS nmos_6p0 w=2u l=0.6u
X1 D a_448_n44# S VSUBS nmos_6p0 w=2u l=0.6u
X2 D a_0_n44# S VSUBS nmos_6p0 w=2u l=0.6u
.ends

.subckt pmos_5p04310589983284_64x8m81 w_n208_n120# D a_0_n44# S a_224_n44#
X0 S a_224_n44# D w_n208_n120# pmos_6p0 w=2.84u l=0.6u
X1 D a_0_n44# S w_n208_n120# pmos_6p0 w=2.84u l=0.6u
.ends

.subckt nmos_5p04310589983285_64x8m81 D a_0_n44# a_896_n44# a_672_n44# S a_448_n44#
+ a_224_n44# a_1344_n44# a_1120_n44# VSUBS
X0 S a_224_n44# D VSUBS nmos_6p0 w=0.89u l=0.6u
X1 D a_448_n44# S VSUBS nmos_6p0 w=0.89u l=0.6u
X2 D a_0_n44# S VSUBS nmos_6p0 w=0.89u l=0.6u
X3 S a_672_n44# D VSUBS nmos_6p0 w=0.89u l=0.6u
X4 D a_896_n44# S VSUBS nmos_6p0 w=0.89u l=0.6u
X5 S a_1120_n44# D VSUBS nmos_6p0 w=0.89u l=0.6u
X6 D a_1344_n44# S VSUBS nmos_6p0 w=0.89u l=0.6u
.ends

.subckt nmos_1p2$$202595372_64x8m81 nmos_5p0431058998329_64x8m81_0/S nmos_5p0431058998329_64x8m81_0/D
+ a_n31_n73# VSUBS
Xnmos_5p0431058998329_64x8m81_0 nmos_5p0431058998329_64x8m81_0/D a_n31_n73# nmos_5p0431058998329_64x8m81_0/S
+ VSUBS nmos_5p0431058998329_64x8m81
.ends

.subckt nmos_1p2$$202596396_64x8m81 nmos_5p0431058998329_64x8m81_0/S nmos_5p0431058998329_64x8m81_0/D
+ a_n31_n73# VSUBS
Xnmos_5p0431058998329_64x8m81_0 nmos_5p0431058998329_64x8m81_0/D a_n31_n73# nmos_5p0431058998329_64x8m81_0/S
+ VSUBS nmos_5p0431058998329_64x8m81
.ends

.subckt wen_v2_64x8m81 wen GWE clk vss IGWEN vdd nmos_5p0431058998329_64x8m81_4/D
Xpmos_5p04310589983241_64x8m81_1 vdd pmos_5p04310589983241_64x8m81_1/D nmos_5p0431058998329_64x8m81_3/D
+ nmos_5p0431058998325_64x8m81_0/D pmos_5p04310589983241_64x8m81
Xnmos_5p04310589983279_64x8m81_0 GWE pmos_5p04310589983283_64x8m81_0/D pmos_5p04310589983283_64x8m81_0/D
+ pmos_5p04310589983283_64x8m81_0/D pmos_5p04310589983283_64x8m81_0/D vss pmos_5p04310589983283_64x8m81_0/D
+ pmos_5p04310589983283_64x8m81_0/D pmos_5p04310589983283_64x8m81_0/D pmos_5p04310589983283_64x8m81_0/D
+ pmos_5p04310589983283_64x8m81_0/D pmos_5p04310589983283_64x8m81_0/D vss nmos_5p04310589983279_64x8m81
Xnmos_5p0431058998329_64x8m81_3 nmos_5p0431058998329_64x8m81_3/D clk vss vss nmos_5p0431058998329_64x8m81
Xnmos_5p0431058998329_64x8m81_4 nmos_5p0431058998329_64x8m81_4/D nmos_5p0431058998329_64x8m81_3/D
+ vss vss nmos_5p0431058998329_64x8m81
Xnmos_5p04310589983279_64x8m81_1 IGWEN pmos_5p04310589983282_64x8m81_0/D pmos_5p04310589983282_64x8m81_0/D
+ pmos_5p04310589983282_64x8m81_0/D pmos_5p04310589983282_64x8m81_0/D vss pmos_5p04310589983282_64x8m81_0/D
+ pmos_5p04310589983282_64x8m81_0/D pmos_5p04310589983282_64x8m81_0/D pmos_5p04310589983282_64x8m81_0/D
+ pmos_5p04310589983282_64x8m81_0/D pmos_5p04310589983282_64x8m81_0/D vss nmos_5p04310589983279_64x8m81
Xpmos_1p2$$202586156_64x8m81_0 pmos_5p04310589983241_64x8m81_1/D vdd vdd pmos_5p04310589983214_64x8m81_2/S
+ pmos_1p2$$202586156_64x8m81
Xnmos_5p04310589983280_64x8m81_0 pmos_5p04310589983284_64x8m81_0/D pmos_5p04310589983214_64x8m81_2/S
+ vss pmos_5p04310589983214_64x8m81_2/S vss nmos_5p04310589983280_64x8m81
Xpmos_5p04310589983283_64x8m81_0 vdd pmos_5p04310589983283_64x8m81_0/D nmos_5p0431058998329_64x8m81_1/S
+ nmos_5p0431058998329_64x8m81_1/S nmos_5p0431058998329_64x8m81_1/S vdd nmos_5p0431058998329_64x8m81_1/S
+ nmos_5p0431058998329_64x8m81_1/S nmos_5p0431058998329_64x8m81_1/S nmos_5p0431058998329_64x8m81_1/S
+ pmos_5p04310589983283_64x8m81
Xpmos_5p04310589983282_64x8m81_0 vdd pmos_5p04310589983282_64x8m81_0/D wen wen wen
+ vdd wen wen wen pmos_5p04310589983282_64x8m81
Xnmos_5p04310589983239_64x8m81_0 pmos_5p04310589983284_64x8m81_0/D nmos_5p0431058998329_64x8m81_4/D
+ nmos_5p0431058998329_64x8m81_1/S nmos_5p0431058998329_64x8m81_4/D vss nmos_5p04310589983239_64x8m81
Xpmos_5p04310589983220_64x8m81_0 vdd pmos_5p04310589983284_64x8m81_0/D nmos_5p0431058998329_64x8m81_3/D
+ nmos_5p0431058998329_64x8m81_1/S nmos_5p0431058998329_64x8m81_3/D pmos_5p04310589983220_64x8m81
Xpmos_1p2$$202587180_64x8m81_0 nmos_5p0431058998329_64x8m81_2/S vdd nmos_5p0431058998325_64x8m81_0/D
+ nmos_5p0431058998329_64x8m81_4/D pmos_1p2$$202587180_64x8m81
Xpmos_5p04310589983214_64x8m81_0 vdd vdd pmos_5p04310589983283_64x8m81_0/D nmos_5p0431058998329_64x8m81_1/D
+ pmos_5p04310589983214_64x8m81
Xpmos_5p04310589983214_64x8m81_1 vdd nmos_5p0431058998329_64x8m81_3/D clk vdd pmos_5p04310589983214_64x8m81
Xpmos_5p04310589983214_64x8m81_2 vdd vdd nmos_5p0431058998325_64x8m81_0/D pmos_5p04310589983214_64x8m81_2/S
+ pmos_5p04310589983214_64x8m81
Xpmos_5p04310589983214_64x8m81_3 vdd vdd wen nmos_5p0431058998329_64x8m81_2/S pmos_5p04310589983214_64x8m81
Xpmos_5p04310589983281_64x8m81_0 vdd GWE pmos_5p04310589983283_64x8m81_0/D pmos_5p04310589983283_64x8m81_0/D
+ pmos_5p04310589983283_64x8m81_0/D pmos_5p04310589983283_64x8m81_0/D vdd pmos_5p04310589983283_64x8m81_0/D
+ pmos_5p04310589983283_64x8m81_0/D pmos_5p04310589983283_64x8m81_0/D pmos_5p04310589983283_64x8m81_0/D
+ pmos_5p04310589983283_64x8m81_0/D pmos_5p04310589983283_64x8m81_0/D pmos_5p04310589983281_64x8m81
Xpmos_5p04310589983214_64x8m81_4 vdd nmos_5p0431058998329_64x8m81_4/D nmos_5p0431058998329_64x8m81_3/D
+ vdd pmos_5p04310589983214_64x8m81
Xpmos_5p04310589983281_64x8m81_1 vdd IGWEN pmos_5p04310589983282_64x8m81_0/D pmos_5p04310589983282_64x8m81_0/D
+ pmos_5p04310589983282_64x8m81_0/D pmos_5p04310589983282_64x8m81_0/D vdd pmos_5p04310589983282_64x8m81_0/D
+ pmos_5p04310589983282_64x8m81_0/D pmos_5p04310589983282_64x8m81_0/D pmos_5p04310589983282_64x8m81_0/D
+ pmos_5p04310589983282_64x8m81_0/D pmos_5p04310589983282_64x8m81_0/D pmos_5p04310589983281_64x8m81
Xnmos_5p04310589983286_64x8m81_0 pmos_5p04310589983282_64x8m81_0/D wen vss wen wen
+ vss nmos_5p04310589983286_64x8m81
Xpmos_5p04310589983284_64x8m81_0 vdd pmos_5p04310589983284_64x8m81_0/D pmos_5p04310589983214_64x8m81_2/S
+ vdd pmos_5p04310589983214_64x8m81_2/S pmos_5p04310589983284_64x8m81
Xnmos_5p0431058998325_64x8m81_0 nmos_5p0431058998325_64x8m81_0/D nmos_5p0431058998329_64x8m81_3/D
+ nmos_5p0431058998329_64x8m81_2/S vss nmos_5p0431058998325_64x8m81
Xnmos_5p04310589983285_64x8m81_0 pmos_5p04310589983283_64x8m81_0/D nmos_5p0431058998329_64x8m81_1/S
+ nmos_5p0431058998329_64x8m81_1/S nmos_5p0431058998329_64x8m81_1/S vss nmos_5p0431058998329_64x8m81_1/S
+ nmos_5p0431058998329_64x8m81_1/S nmos_5p0431058998329_64x8m81_1/S nmos_5p0431058998329_64x8m81_1/S
+ vss nmos_5p04310589983285_64x8m81
Xnmos_5p0431058998329_64x8m81_0 vss pmos_5p04310589983283_64x8m81_0/D nmos_5p0431058998329_64x8m81_1/D
+ vss nmos_5p0431058998329_64x8m81
Xnmos_1p2$$202595372_64x8m81_0 pmos_5p04310589983214_64x8m81_2/S vss nmos_5p0431058998325_64x8m81_0/D
+ vss nmos_1p2$$202595372_64x8m81
Xnmos_1p2$$202595372_64x8m81_1 nmos_5p0431058998325_64x8m81_0/D pmos_5p04310589983241_64x8m81_1/D
+ nmos_5p0431058998329_64x8m81_4/D vss nmos_1p2$$202595372_64x8m81
Xnmos_5p0431058998329_64x8m81_1 nmos_5p0431058998329_64x8m81_1/D nmos_5p0431058998329_64x8m81_3/D
+ nmos_5p0431058998329_64x8m81_1/S vss nmos_5p0431058998329_64x8m81
Xpmos_5p04310589983241_64x8m81_0 vdd nmos_5p0431058998329_64x8m81_1/D nmos_5p0431058998329_64x8m81_4/D
+ nmos_5p0431058998329_64x8m81_1/S pmos_5p04310589983241_64x8m81
Xnmos_5p0431058998329_64x8m81_2 vss wen nmos_5p0431058998329_64x8m81_2/S vss nmos_5p0431058998329_64x8m81
Xnmos_1p2$$202596396_64x8m81_0 pmos_5p04310589983241_64x8m81_1/D vss pmos_5p04310589983214_64x8m81_2/S
+ vss nmos_1p2$$202596396_64x8m81
.ends

.subckt pmos_5p04310589983295_64x8m81 w_n208_n120# D a_0_n44# S
X0 D a_0_n44# S w_n208_n120# pmos_6p0 w=0.9u l=1u
.ends

.subckt nmos_5p04310589983257_64x8m81 D a_0_n44# S VSUBS
X0 D a_0_n44# S VSUBS nmos_6p0 w=1.36u l=0.6u
.ends

.subckt nmos_1p2$$47342636_64x8m81 nmos_5p04310589983257_64x8m81_0/S nmos_5p04310589983257_64x8m81_0/D
+ a_n31_n73# VSUBS
Xnmos_5p04310589983257_64x8m81_0 nmos_5p04310589983257_64x8m81_0/D a_n31_n73# nmos_5p04310589983257_64x8m81_0/S
+ VSUBS nmos_5p04310589983257_64x8m81
.ends

.subckt pmos_1p2$$46285868_64x8m81 pmos_5p04310589983214_64x8m81_0/S w_n286_n142#
+ pmos_5p04310589983214_64x8m81_0/D a_n31_n73#
Xpmos_5p04310589983214_64x8m81_0 w_n286_n142# pmos_5p04310589983214_64x8m81_0/D a_n31_n73#
+ pmos_5p04310589983214_64x8m81_0/S pmos_5p04310589983214_64x8m81
.ends

.subckt pmos_1p2$$47330348_64x8m81 pmos_5p04310589983241_64x8m81_0/D a_n31_n73# w_n286_n141#
+ pmos_5p04310589983241_64x8m81_0/S
Xpmos_5p04310589983241_64x8m81_0 w_n286_n141# pmos_5p04310589983241_64x8m81_0/D a_n31_n73#
+ pmos_5p04310589983241_64x8m81_0/S pmos_5p04310589983241_64x8m81
.ends

.subckt nmos_5p04310589983289_64x8m81 D a_0_n44# a_896_n44# a_672_n44# S a_448_n44#
+ a_224_n44# VSUBS
X0 S a_224_n44# D VSUBS nmos_6p0 w=9.98u l=0.6u
X1 D a_448_n44# S VSUBS nmos_6p0 w=9.98u l=0.6u
X2 D a_0_n44# S VSUBS nmos_6p0 w=9.98u l=0.6u
X3 S a_672_n44# D VSUBS nmos_6p0 w=9.98u l=0.6u
X4 D a_896_n44# S VSUBS nmos_6p0 w=9.98u l=0.6u
.ends

.subckt nmos_1p2$$48306220_64x8m81 nmos_5p04310589983289_64x8m81_0/D a_865_n74# a_641_n74#
+ a_417_n74# a_193_n74# nmos_5p04310589983289_64x8m81_0/S a_n31_n74# VSUBS
Xnmos_5p04310589983289_64x8m81_0 nmos_5p04310589983289_64x8m81_0/D a_n31_n74# a_865_n74#
+ a_641_n74# nmos_5p04310589983289_64x8m81_0/S a_417_n74# a_193_n74# VSUBS nmos_5p04310589983289_64x8m81
.ends

.subckt pmos_5p04310589983277_64x8m81 w_n208_n120# D a_0_n44# S a_224_n44#
X0 S a_224_n44# D w_n208_n120# pmos_6p0 w=3.77u l=0.6u
X1 D a_0_n44# S w_n208_n120# pmos_6p0 w=3.77u l=0.6u
.ends

.subckt pmos_1p2$$48623660_64x8m81 pmos_5p04310589983277_64x8m81_0/S a_193_n74# pmos_5p04310589983277_64x8m81_0/D
+ w_n286_n142# a_n31_n74#
Xpmos_5p04310589983277_64x8m81_0 w_n286_n142# pmos_5p04310589983277_64x8m81_0/D a_n31_n74#
+ pmos_5p04310589983277_64x8m81_0/S a_193_n74# pmos_5p04310589983277_64x8m81
.ends

.subckt pmos_5p04310589983294_64x8m81 w_n208_n120# D a_0_n44# S
X0 D a_0_n44# S w_n208_n120# pmos_6p0 w=19.5u l=0.6u
.ends

.subckt pmos_1p2$$48624684_64x8m81 pmos_5p04310589983294_64x8m81_0/D w_n286_n141#
+ pmos_5p04310589983294_64x8m81_0/S a_n31_n74#
Xpmos_5p04310589983294_64x8m81_0 w_n286_n141# pmos_5p04310589983294_64x8m81_0/D a_n31_n74#
+ pmos_5p04310589983294_64x8m81_0/S pmos_5p04310589983294_64x8m81
.ends

.subckt nmos_5p04310589983288_64x8m81 a_2464_n44# D a_2240_n44# a_3584_n44# a_2016_n44#
+ a_3360_n44# a_3136_n44# a_2912_n44# a_0_n44# a_4256_n44# a_4032_n44# a_3808_n44#
+ a_896_n44# a_672_n44# S a_1792_n44# a_448_n44# a_224_n44# a_1568_n44# a_1344_n44#
+ a_1120_n44# a_2688_n44# VSUBS
X0 S a_4256_n44# D VSUBS nmos_6p0 w=7.37u l=0.6u
X1 S a_224_n44# D VSUBS nmos_6p0 w=7.37u l=0.6u
X2 D a_448_n44# S VSUBS nmos_6p0 w=7.37u l=0.6u
X3 D a_0_n44# S VSUBS nmos_6p0 w=7.37u l=0.6u
X4 S a_2912_n44# D VSUBS nmos_6p0 w=7.37u l=0.6u
X5 D a_3136_n44# S VSUBS nmos_6p0 w=7.37u l=0.6u
X6 S a_672_n44# D VSUBS nmos_6p0 w=7.37u l=0.6u
X7 D a_896_n44# S VSUBS nmos_6p0 w=7.37u l=0.6u
X8 S a_3360_n44# D VSUBS nmos_6p0 w=7.37u l=0.6u
X9 S a_2016_n44# D VSUBS nmos_6p0 w=7.37u l=0.6u
X10 D a_3584_n44# S VSUBS nmos_6p0 w=7.37u l=0.6u
X11 D a_2240_n44# S VSUBS nmos_6p0 w=7.37u l=0.6u
X12 S a_2464_n44# D VSUBS nmos_6p0 w=7.37u l=0.6u
X13 D a_2688_n44# S VSUBS nmos_6p0 w=7.37u l=0.6u
X14 S a_1120_n44# D VSUBS nmos_6p0 w=7.37u l=0.6u
X15 D a_1344_n44# S VSUBS nmos_6p0 w=7.37u l=0.6u
X16 S a_1568_n44# D VSUBS nmos_6p0 w=7.37u l=0.6u
X17 D a_1792_n44# S VSUBS nmos_6p0 w=7.37u l=0.6u
X18 S a_3808_n44# D VSUBS nmos_6p0 w=7.37u l=0.6u
X19 D a_4032_n44# S VSUBS nmos_6p0 w=7.37u l=0.6u
.ends

.subckt nmos_1p2$$48308268_64x8m81 nmos_5p04310589983288_64x8m81_0/a_4032_n44# nmos_5p04310589983288_64x8m81_0/a_3808_n44#
+ nmos_5p04310589983288_64x8m81_0/a_1792_n44# nmos_5p04310589983288_64x8m81_0/a_1568_n44#
+ nmos_5p04310589983288_64x8m81_0/a_1344_n44# nmos_5p04310589983288_64x8m81_0/a_1120_n44#
+ nmos_5p04310589983288_64x8m81_0/a_2688_n44# nmos_5p04310589983288_64x8m81_0/a_2464_n44#
+ nmos_5p04310589983288_64x8m81_0/a_2240_n44# nmos_5p04310589983288_64x8m81_0/a_896_n44#
+ nmos_5p04310589983288_64x8m81_0/S nmos_5p04310589983288_64x8m81_0/a_672_n44# nmos_5p04310589983288_64x8m81_0/a_3584_n44#
+ nmos_5p04310589983288_64x8m81_0/a_0_n44# nmos_5p04310589983288_64x8m81_0/a_2016_n44#
+ nmos_5p04310589983288_64x8m81_0/a_3360_n44# nmos_5p04310589983288_64x8m81_0/a_448_n44#
+ nmos_5p04310589983288_64x8m81_0/a_224_n44# nmos_5p04310589983288_64x8m81_0/a_3136_n44#
+ nmos_5p04310589983288_64x8m81_0/a_2912_n44# nmos_5p04310589983288_64x8m81_0/a_4256_n44#
+ VSUBS nmos_5p04310589983288_64x8m81_0/D
Xnmos_5p04310589983288_64x8m81_0 nmos_5p04310589983288_64x8m81_0/a_2464_n44# nmos_5p04310589983288_64x8m81_0/D
+ nmos_5p04310589983288_64x8m81_0/a_2240_n44# nmos_5p04310589983288_64x8m81_0/a_3584_n44#
+ nmos_5p04310589983288_64x8m81_0/a_2016_n44# nmos_5p04310589983288_64x8m81_0/a_3360_n44#
+ nmos_5p04310589983288_64x8m81_0/a_3136_n44# nmos_5p04310589983288_64x8m81_0/a_2912_n44#
+ nmos_5p04310589983288_64x8m81_0/a_0_n44# nmos_5p04310589983288_64x8m81_0/a_4256_n44#
+ nmos_5p04310589983288_64x8m81_0/a_4032_n44# nmos_5p04310589983288_64x8m81_0/a_3808_n44#
+ nmos_5p04310589983288_64x8m81_0/a_896_n44# nmos_5p04310589983288_64x8m81_0/a_672_n44#
+ nmos_5p04310589983288_64x8m81_0/S nmos_5p04310589983288_64x8m81_0/a_1792_n44# nmos_5p04310589983288_64x8m81_0/a_448_n44#
+ nmos_5p04310589983288_64x8m81_0/a_224_n44# nmos_5p04310589983288_64x8m81_0/a_1568_n44#
+ nmos_5p04310589983288_64x8m81_0/a_1344_n44# nmos_5p04310589983288_64x8m81_0/a_1120_n44#
+ nmos_5p04310589983288_64x8m81_0/a_2688_n44# VSUBS nmos_5p04310589983288_64x8m81
.ends

.subckt nmos_1p2$$48629804_64x8m81 nmos_5p04310589983239_64x8m81_0/D a_193_n73# a_n31_n73#
+ nmos_5p04310589983239_64x8m81_0/S VSUBS
Xnmos_5p04310589983239_64x8m81_0 nmos_5p04310589983239_64x8m81_0/D a_n31_n73# nmos_5p04310589983239_64x8m81_0/S
+ a_193_n73# VSUBS nmos_5p04310589983239_64x8m81
.ends

.subckt pmos_5p04310589983251_64x8m81 w_n208_n120# D a_0_n44# S a_224_n44#
X0 S a_224_n44# D w_n208_n120# pmos_6p0 w=5.67u l=0.6u
X1 D a_0_n44# S w_n208_n120# pmos_6p0 w=5.67u l=0.6u
.ends

.subckt nmos_5p04310589983290_64x8m81 D a_0_n44# S VSUBS
X0 D a_0_n44# S VSUBS nmos_6p0 w=3.02u l=0.6u
.ends

.subckt nmos_1p2$$48302124_64x8m81 a_n31_n74# nmos_5p04310589983290_64x8m81_0/S nmos_5p04310589983290_64x8m81_0/D
+ VSUBS
Xnmos_5p04310589983290_64x8m81_0 nmos_5p04310589983290_64x8m81_0/D a_n31_n74# nmos_5p04310589983290_64x8m81_0/S
+ VSUBS nmos_5p04310589983290_64x8m81
.ends

.subckt gen_512x8_64x8m81 WEN GWE tblhl cen clk wen_v2_64x8m81_0/IGWEN pmos_5p04310589983292_64x8m81_0/D
+ wen_v2_64x8m81_0/nmos_5p0431058998329_64x8m81_4/D men VSS VDD
Xnmos_1p2$$46563372_64x8m81_1 pmos_1p2$$46273580_64x8m81_0/pmos_5p0431058998323_64x8m81_0/D
+ VSS pmos_5p04310589983251_64x8m81_0/D VSS nmos_1p2$$46563372_64x8m81
Xpmos_5p04310589983278_64x8m81_0 VDD pmos_5p04310589983278_64x8m81_0/D clk VDD pmos_5p04310589983278_64x8m81
Xnmos_1p2$$46563372_64x8m81_2 nmos_1p2$$46563372_64x8m81_2/nmos_5p0431058998329_64x8m81_0/S
+ pmos_1p2$$46273580_64x8m81_0/pmos_5p0431058998323_64x8m81_0/D nmos_1p2$$46563372_64x8m81_0/nmos_5p0431058998329_64x8m81_0/D
+ VSS nmos_1p2$$46563372_64x8m81
Xpmos_5p04310589983278_64x8m81_1 VDD pmos_5p04310589983278_64x8m81_1/D pmos_5p04310589983278_64x8m81_0/D
+ VDD pmos_5p04310589983278_64x8m81
Xnmos_5p04310589983298_64x8m81_0 pmos_5p04310589983295_64x8m81_0/D pmos_5p04310589983278_64x8m81_1/D
+ VSS VSS nmos_5p04310589983298_64x8m81
Xpmos_1p2$$47815724_64x8m81_0 VDD VDD pmos_1p2$$47815724_64x8m81_3/pmos_5p04310589983291_64x8m81_0/S
+ tblhl pmos_1p2$$47815724_64x8m81
Xpmos_1p2$$47815724_64x8m81_1 pmos_1p2$$47815724_64x8m81_3/pmos_5p04310589983291_64x8m81_0/S
+ VDD VDD pmos_1p2$$47815724_64x8m81_7/pmos_5p04310589983291_64x8m81_0/S pmos_1p2$$47815724_64x8m81
Xpmos_5p04310589983287_64x8m81_0 VDD pmos_5p04310589983287_64x8m81_0/D pmos_5p04310589983295_64x8m81_0/D
+ VDD pmos_5p04310589983287_64x8m81
Xpmos_1p2$$47815724_64x8m81_2 pmos_1p2$$47815724_64x8m81_3/pmos_5p04310589983291_64x8m81_0/S
+ VDD VDD tblhl pmos_1p2$$47815724_64x8m81
Xpmos_1p2$$47815724_64x8m81_3 VDD VDD pmos_1p2$$47815724_64x8m81_3/pmos_5p04310589983291_64x8m81_0/S
+ pmos_1p2$$47815724_64x8m81_7/pmos_5p04310589983291_64x8m81_0/S pmos_1p2$$47815724_64x8m81
Xpmos_1p2$$47815724_64x8m81_4 pmos_1p2$$47815724_64x8m81_7/pmos_5p04310589983291_64x8m81_0/S
+ VDD VDD pmos_1p2$$47815724_64x8m81_3/pmos_5p04310589983291_64x8m81_0/S pmos_1p2$$47815724_64x8m81
Xpmos_1p2$$47815724_64x8m81_5 pmos_1p2$$47815724_64x8m81_7/pmos_5p04310589983291_64x8m81_0/S
+ VDD VDD pmos_1p2$$48624684_64x8m81_2/pmos_5p04310589983294_64x8m81_0/S pmos_1p2$$47815724_64x8m81
Xpmos_5p04310589983292_64x8m81_0 VDD pmos_5p04310589983292_64x8m81_0/D pmos_1p2$$47815724_64x8m81_7/pmos_5p04310589983291_64x8m81_0/S
+ pmos_1p2$$47815724_64x8m81_7/pmos_5p04310589983291_64x8m81_0/S pmos_1p2$$47815724_64x8m81_7/pmos_5p04310589983291_64x8m81_0/S
+ pmos_1p2$$47815724_64x8m81_7/pmos_5p04310589983291_64x8m81_0/S VDD pmos_1p2$$47815724_64x8m81_7/pmos_5p04310589983291_64x8m81_0/S
+ pmos_1p2$$47815724_64x8m81_7/pmos_5p04310589983291_64x8m81_0/S pmos_1p2$$47815724_64x8m81_7/pmos_5p04310589983291_64x8m81_0/S
+ pmos_1p2$$47815724_64x8m81_7/pmos_5p04310589983291_64x8m81_0/S pmos_1p2$$47815724_64x8m81_7/pmos_5p04310589983291_64x8m81_0/S
+ pmos_1p2$$47815724_64x8m81_7/pmos_5p04310589983291_64x8m81_0/S pmos_5p04310589983292_64x8m81
Xpmos_1p2$$47815724_64x8m81_6 VDD VDD pmos_1p2$$47815724_64x8m81_7/pmos_5p04310589983291_64x8m81_0/S
+ pmos_1p2$$47815724_64x8m81_3/pmos_5p04310589983291_64x8m81_0/S pmos_1p2$$47815724_64x8m81
Xnmos_5p04310589983293_64x8m81_0 pmos_5p04310589983278_64x8m81_0/D clk VSS VSS nmos_5p04310589983293_64x8m81
Xpmos_5p04310589983296_64x8m81_0 pmos_5p04310589983292_64x8m81_0/D VDD men pmos_5p04310589983292_64x8m81_0/D
+ pmos_5p04310589983292_64x8m81_0/D pmos_5p04310589983292_64x8m81_0/D pmos_5p04310589983292_64x8m81_0/D
+ pmos_5p04310589983292_64x8m81_0/D pmos_5p04310589983292_64x8m81_0/D pmos_5p04310589983292_64x8m81_0/D
+ pmos_5p04310589983292_64x8m81_0/D pmos_5p04310589983292_64x8m81_0/D pmos_5p04310589983292_64x8m81_0/D
+ pmos_5p04310589983292_64x8m81_0/D pmos_5p04310589983292_64x8m81_0/D VDD pmos_5p04310589983292_64x8m81_0/D
+ pmos_5p04310589983292_64x8m81_0/D pmos_5p04310589983292_64x8m81_0/D pmos_5p04310589983292_64x8m81_0/D
+ pmos_5p04310589983292_64x8m81_0/D pmos_5p04310589983292_64x8m81_0/D pmos_5p04310589983292_64x8m81_0/D
+ pmos_5p04310589983296_64x8m81
Xpmos_1p2$$47815724_64x8m81_7 VDD VDD pmos_1p2$$47815724_64x8m81_7/pmos_5p04310589983291_64x8m81_0/S
+ pmos_1p2$$48624684_64x8m81_2/pmos_5p04310589983294_64x8m81_0/S pmos_1p2$$47815724_64x8m81
Xnmos_5p04310589983297_64x8m81_0 pmos_5p04310589983287_64x8m81_0/D pmos_5p04310589983295_64x8m81_0/D
+ VSS VSS nmos_5p04310589983297_64x8m81
Xnmos_5p04310589983293_64x8m81_1 pmos_5p04310589983278_64x8m81_1/D pmos_5p04310589983278_64x8m81_0/D
+ VSS VSS nmos_5p04310589983293_64x8m81
Xpmos_1p2$$46273580_64x8m81_0 pmos_1p2$$46273580_64x8m81_0/pmos_5p0431058998323_64x8m81_0/D
+ pmos_5p04310589983251_64x8m81_0/D VDD VDD pmos_5p04310589983251_64x8m81_0/D pmos_1p2$$46273580_64x8m81
Xnmos_1p2$$46551084_64x8m81_0 cen nmos_1p2$$47342636_64x8m81_1/nmos_5p04310589983257_64x8m81_0/S
+ nmos_1p2$$46563372_64x8m81_2/nmos_5p0431058998329_64x8m81_0/S VSS nmos_1p2$$46551084_64x8m81
Xwen_v2_64x8m81_0 wen_v2_64x8m81_0/wen wen_v2_64x8m81_0/GWE clk VSS wen_v2_64x8m81_0/IGWEN
+ VDD wen_v2_64x8m81_0/nmos_5p0431058998329_64x8m81_4/D wen_v2_64x8m81
Xpmos_5p04310589983295_64x8m81_0 VDD pmos_5p04310589983295_64x8m81_0/D pmos_5p04310589983278_64x8m81_1/D
+ VDD pmos_5p04310589983295_64x8m81
Xnmos_1p2$$47342636_64x8m81_0 VSS nmos_1p2$$47342636_64x8m81_1/nmos_5p04310589983257_64x8m81_0/S
+ clk VSS nmos_1p2$$47342636_64x8m81
Xpmos_1p2$$46285868_64x8m81_0 VDD VDD nmos_1p2$$46563372_64x8m81_0/nmos_5p0431058998329_64x8m81_0/D
+ nmos_1p2$$47342636_64x8m81_1/nmos_5p04310589983257_64x8m81_0/S pmos_1p2$$46285868_64x8m81
Xnmos_1p2$$47342636_64x8m81_1 nmos_1p2$$47342636_64x8m81_1/nmos_5p04310589983257_64x8m81_0/S
+ VSS men VSS nmos_1p2$$47342636_64x8m81
Xpmos_1p2$$46285868_64x8m81_1 nmos_1p2$$46563372_64x8m81_2/nmos_5p0431058998329_64x8m81_0/S
+ VDD cen nmos_1p2$$46563372_64x8m81_0/nmos_5p0431058998329_64x8m81_0/D pmos_1p2$$46285868_64x8m81
Xpmos_1p2$$47330348_64x8m81_0 pmos_1p2$$46273580_64x8m81_0/pmos_5p0431058998323_64x8m81_0/D
+ nmos_1p2$$47342636_64x8m81_1/nmos_5p04310589983257_64x8m81_0/S VDD nmos_1p2$$46563372_64x8m81_2/nmos_5p0431058998329_64x8m81_0/S
+ pmos_1p2$$47330348_64x8m81
Xnmos_1p2$$48306220_64x8m81_0 pmos_5p04310589983292_64x8m81_0/D pmos_1p2$$47815724_64x8m81_7/pmos_5p04310589983291_64x8m81_0/S
+ pmos_1p2$$47815724_64x8m81_7/pmos_5p04310589983291_64x8m81_0/S pmos_1p2$$47815724_64x8m81_7/pmos_5p04310589983291_64x8m81_0/S
+ pmos_1p2$$47815724_64x8m81_7/pmos_5p04310589983291_64x8m81_0/S VSS pmos_1p2$$47815724_64x8m81_7/pmos_5p04310589983291_64x8m81_0/S
+ VSS nmos_1p2$$48306220_64x8m81
Xpmos_1p2$$48623660_64x8m81_0 VDD pmos_5p04310589983287_64x8m81_0/D pmos_1p2$$48623660_64x8m81_0/pmos_5p04310589983277_64x8m81_0/D
+ VDD pmos_5p04310589983287_64x8m81_0/D pmos_1p2$$48623660_64x8m81
Xpmos_1p2$$48624684_64x8m81_0 pmos_1p2$$48624684_64x8m81_2/pmos_5p04310589983294_64x8m81_0/S
+ VDD VDD pmos_5p04310589983251_64x8m81_0/D pmos_1p2$$48624684_64x8m81
Xnmos_1p2$$48308268_64x8m81_0 pmos_5p04310589983292_64x8m81_0/D pmos_5p04310589983292_64x8m81_0/D
+ pmos_5p04310589983292_64x8m81_0/D pmos_5p04310589983292_64x8m81_0/D pmos_5p04310589983292_64x8m81_0/D
+ pmos_5p04310589983292_64x8m81_0/D pmos_5p04310589983292_64x8m81_0/D pmos_5p04310589983292_64x8m81_0/D
+ pmos_5p04310589983292_64x8m81_0/D pmos_5p04310589983292_64x8m81_0/D VSS pmos_5p04310589983292_64x8m81_0/D
+ pmos_5p04310589983292_64x8m81_0/D pmos_5p04310589983292_64x8m81_0/D pmos_5p04310589983292_64x8m81_0/D