* NGSPICE file created from gf180mcu_fd_ip_sram__sram128x8m8wm1.ext - technology: gf180mcuA

.subckt x018SRAM_cell1_cutPC_128x8m81 a_n36_52# a_444_n42# a_246_342# a_246_712# m3_n36_330#
+ a_36_n42# w_n68_622# VSUBS
X0 a_126_298# a_n36_52# a_444_n42# VSUBS nmos_6p0 w=0.6u l=0.77u
X1 a_36_206# a_n36_52# a_36_n42# VSUBS nmos_6p0 w=0.6u l=0.77u
X2 a_246_712# a_126_298# a_36_206# w_n68_622# pmos_6p0 w=0.6u l=0.6u
X3 a_126_298# a_36_206# a_246_712# w_n68_622# pmos_6p0 w=0.6u l=0.6u
X4 a_246_342# a_126_298# a_36_206# VSUBS nmos_6p0 w=0.95u l=0.6u
X5 a_126_298# a_36_206# a_246_342# VSUBS nmos_6p0 w=0.95u l=0.6u
.ends

.subckt x018SRAM_cell1_128x8m81 a_n36_52# a_444_n42# a_246_342# a_246_712# m3_n36_330#
+ a_36_n42# w_n68_622# VSUBS
X0 a_126_298# a_n36_52# a_444_n42# VSUBS nmos_6p0 w=0.6u l=0.77u
X1 a_36_206# a_n36_52# a_36_n42# VSUBS nmos_6p0 w=0.6u l=0.77u
X2 a_246_712# a_126_298# a_36_206# w_n68_622# pmos_6p0 w=0.6u l=0.6u
X3 a_126_298# a_36_206# a_246_712# w_n68_622# pmos_6p0 w=0.6u l=0.6u
X4 a_246_342# a_126_298# a_36_206# VSUBS nmos_6p0 w=0.95u l=0.6u
X5 a_126_298# a_36_206# a_246_342# VSUBS nmos_6p0 w=0.95u l=0.6u
.ends

.subckt x018SRAM_cell1_dummy_128x8m81 a_n36_52# m2_90_n50# a_246_342# m2_390_n50#
+ a_246_712# m3_n36_330# w_n68_622# VSUBS
X0 a_126_298# a_n36_52# a_444_n42# VSUBS nmos_6p0 w=0.6u l=0.77u
X1 a_36_206# a_n36_52# a_36_n42# VSUBS nmos_6p0 w=0.6u l=0.77u
X2 a_246_712# a_126_298# a_36_206# w_n68_622# pmos_6p0 w=0.6u l=0.6u
X3 a_126_298# a_36_206# a_246_712# w_n68_622# pmos_6p0 w=0.6u l=0.6u
X4 a_246_342# a_126_298# a_36_206# VSUBS nmos_6p0 w=0.95u l=0.6u
X5 a_126_298# a_36_206# a_246_342# VSUBS nmos_6p0 w=0.95u l=0.6u
.ends

.subckt new_dummyrow_unit_01_128x8m81 018SRAM_cell1_dummy_128x8m81_9/m2_390_n50# 018SRAM_cell1_dummy_128x8m81_8/m2_390_n50#
+ 018SRAM_cell1_dummy_128x8m81_9/m2_90_n50# 018SRAM_cell1_dummy_128x8m81_10/m2_90_n50#
+ 018SRAM_cell1_dummy_128x8m81_11/m2_90_n50# 018SRAM_cell1_dummy_128x8m81_0/m2_90_n50#
+ 018SRAM_cell1_dummy_128x8m81_12/m2_90_n50# 018SRAM_cell1_dummy_128x8m81_1/m2_90_n50#
+ 018SRAM_cell1_dummy_128x8m81_2/m2_90_n50# 018SRAM_cell1_dummy_128x8m81_13/m2_90_n50#
+ 018SRAM_cell1_dummy_128x8m81_14/m2_90_n50# 018SRAM_cell1_dummy_128x8m81_3/m2_90_n50#
+ 018SRAM_cell1_dummy_128x8m81_15/m2_90_n50# 018SRAM_cell1_dummy_128x8m81_4/m2_90_n50#
+ 018SRAM_cell1_dummy_128x8m81_5/m2_90_n50# 018SRAM_strap1_128x8m81_1/a_n36_52# 018SRAM_cell1_dummy_128x8m81_6/m2_90_n50#
+ 018SRAM_cell1_dummy_128x8m81_0/m2_390_n50# 018SRAM_cell1_dummy_128x8m81_1/m2_390_n50#
+ 018SRAM_cell1_dummy_128x8m81_2/m2_390_n50# 018SRAM_cell1_dummy_128x8m81_10/m2_390_n50#
+ 018SRAM_cell1_dummy_128x8m81_3/m2_390_n50# 018SRAM_cell1_dummy_128x8m81_7/m2_90_n50#
+ 018SRAM_cell1_dummy_128x8m81_11/m2_390_n50# 018SRAM_cell1_dummy_128x8m81_12/m2_390_n50#
+ 018SRAM_cell1_dummy_128x8m81_4/m2_390_n50# 018SRAM_cell1_dummy_128x8m81_13/m2_390_n50#
+ 018SRAM_cell1_dummy_128x8m81_6/m2_390_n50# 018SRAM_cell1_dummy_128x8m81_5/m2_390_n50#
+ 018SRAM_cell1_dummy_128x8m81_14/m2_390_n50# VSUBS 018SRAM_strap1_128x8m81_1/w_n68_622#
+ 018SRAM_cell1_dummy_128x8m81_7/m2_390_n50# 018SRAM_cell1_dummy_128x8m81_8/m2_90_n50#
+ 018SRAM_cell1_dummy_128x8m81_15/m2_390_n50#
X018SRAM_cell1_dummy_128x8m81_10 018SRAM_strap1_128x8m81_1/a_n36_52# 018SRAM_cell1_dummy_128x8m81_10/m2_90_n50#
+ VSUBS 018SRAM_cell1_dummy_128x8m81_10/m2_390_n50# 018SRAM_strap1_128x8m81_1/w_n68_622#
+ 018SRAM_strap1_128x8m81_1/a_n36_52# 018SRAM_strap1_128x8m81_1/w_n68_622# VSUBS x018SRAM_cell1_dummy_128x8m81
X018SRAM_cell1_dummy_128x8m81_11 018SRAM_strap1_128x8m81_1/a_n36_52# 018SRAM_cell1_dummy_128x8m81_11/m2_90_n50#
+ VSUBS 018SRAM_cell1_dummy_128x8m81_11/m2_390_n50# 018SRAM_strap1_128x8m81_1/w_n68_622#
+ 018SRAM_strap1_128x8m81_1/a_n36_52# 018SRAM_strap1_128x8m81_1/w_n68_622# VSUBS x018SRAM_cell1_dummy_128x8m81
X018SRAM_cell1_dummy_128x8m81_12 018SRAM_strap1_128x8m81_1/a_n36_52# 018SRAM_cell1_dummy_128x8m81_12/m2_90_n50#
+ VSUBS 018SRAM_cell1_dummy_128x8m81_12/m2_390_n50# 018SRAM_strap1_128x8m81_1/w_n68_622#
+ 018SRAM_strap1_128x8m81_1/a_n36_52# 018SRAM_strap1_128x8m81_1/w_n68_622# VSUBS x018SRAM_cell1_dummy_128x8m81
X018SRAM_cell1_dummy_128x8m81_13 018SRAM_strap1_128x8m81_1/a_n36_52# 018SRAM_cell1_dummy_128x8m81_13/m2_90_n50#
+ VSUBS 018SRAM_cell1_dummy_128x8m81_13/m2_390_n50# 018SRAM_strap1_128x8m81_1/w_n68_622#
+ 018SRAM_strap1_128x8m81_1/a_n36_52# 018SRAM_strap1_128x8m81_1/w_n68_622# VSUBS x018SRAM_cell1_dummy_128x8m81
X018SRAM_cell1_dummy_128x8m81_14 018SRAM_strap1_128x8m81_1/a_n36_52# 018SRAM_cell1_dummy_128x8m81_14/m2_90_n50#
+ VSUBS 018SRAM_cell1_dummy_128x8m81_14/m2_390_n50# 018SRAM_strap1_128x8m81_1/w_n68_622#
+ 018SRAM_strap1_128x8m81_1/a_n36_52# 018SRAM_strap1_128x8m81_1/w_n68_622# VSUBS x018SRAM_cell1_dummy_128x8m81
X018SRAM_cell1_dummy_128x8m81_15 018SRAM_strap1_128x8m81_1/a_n36_52# 018SRAM_cell1_dummy_128x8m81_15/m2_90_n50#
+ VSUBS 018SRAM_cell1_dummy_128x8m81_15/m2_390_n50# 018SRAM_strap1_128x8m81_1/w_n68_622#
+ 018SRAM_strap1_128x8m81_1/a_n36_52# 018SRAM_strap1_128x8m81_1/w_n68_622# VSUBS x018SRAM_cell1_dummy_128x8m81
X018SRAM_cell1_dummy_128x8m81_0 018SRAM_strap1_128x8m81_1/a_n36_52# 018SRAM_cell1_dummy_128x8m81_0/m2_90_n50#
+ VSUBS 018SRAM_cell1_dummy_128x8m81_0/m2_390_n50# 018SRAM_strap1_128x8m81_1/w_n68_622#
+ 018SRAM_strap1_128x8m81_1/a_n36_52# 018SRAM_strap1_128x8m81_1/w_n68_622# VSUBS x018SRAM_cell1_dummy_128x8m81
X018SRAM_cell1_dummy_128x8m81_1 018SRAM_strap1_128x8m81_1/a_n36_52# 018SRAM_cell1_dummy_128x8m81_1/m2_90_n50#
+ VSUBS 018SRAM_cell1_dummy_128x8m81_1/m2_390_n50# 018SRAM_strap1_128x8m81_1/w_n68_622#
+ 018SRAM_strap1_128x8m81_1/a_n36_52# 018SRAM_strap1_128x8m81_1/w_n68_622# VSUBS x018SRAM_cell1_dummy_128x8m81
X018SRAM_cell1_dummy_128x8m81_3 018SRAM_strap1_128x8m81_1/a_n36_52# 018SRAM_cell1_dummy_128x8m81_3/m2_90_n50#
+ VSUBS 018SRAM_cell1_dummy_128x8m81_3/m2_390_n50# 018SRAM_strap1_128x8m81_1/w_n68_622#
+ 018SRAM_strap1_128x8m81_1/a_n36_52# 018SRAM_strap1_128x8m81_1/w_n68_622# VSUBS x018SRAM_cell1_dummy_128x8m81
X018SRAM_cell1_dummy_128x8m81_2 018SRAM_strap1_128x8m81_1/a_n36_52# 018SRAM_cell1_dummy_128x8m81_2/m2_90_n50#
+ VSUBS 018SRAM_cell1_dummy_128x8m81_2/m2_390_n50# 018SRAM_strap1_128x8m81_1/w_n68_622#
+ 018SRAM_strap1_128x8m81_1/a_n36_52# 018SRAM_strap1_128x8m81_1/w_n68_622# VSUBS x018SRAM_cell1_dummy_128x8m81
X018SRAM_cell1_dummy_128x8m81_4 018SRAM_strap1_128x8m81_1/a_n36_52# 018SRAM_cell1_dummy_128x8m81_4/m2_90_n50#
+ VSUBS 018SRAM_cell1_dummy_128x8m81_4/m2_390_n50# 018SRAM_strap1_128x8m81_1/w_n68_622#
+ 018SRAM_strap1_128x8m81_1/a_n36_52# 018SRAM_strap1_128x8m81_1/w_n68_622# VSUBS x018SRAM_cell1_dummy_128x8m81
X018SRAM_cell1_dummy_128x8m81_5 018SRAM_strap1_128x8m81_1/a_n36_52# 018SRAM_cell1_dummy_128x8m81_5/m2_90_n50#
+ VSUBS 018SRAM_cell1_dummy_128x8m81_5/m2_390_n50# 018SRAM_strap1_128x8m81_1/w_n68_622#
+ 018SRAM_strap1_128x8m81_1/a_n36_52# 018SRAM_strap1_128x8m81_1/w_n68_622# VSUBS x018SRAM_cell1_dummy_128x8m81
X018SRAM_cell1_dummy_128x8m81_6 018SRAM_strap1_128x8m81_1/a_n36_52# 018SRAM_cell1_dummy_128x8m81_6/m2_90_n50#
+ VSUBS 018SRAM_cell1_dummy_128x8m81_6/m2_390_n50# 018SRAM_strap1_128x8m81_1/w_n68_622#
+ 018SRAM_strap1_128x8m81_1/a_n36_52# 018SRAM_strap1_128x8m81_1/w_n68_622# VSUBS x018SRAM_cell1_dummy_128x8m81
X018SRAM_cell1_dummy_128x8m81_7 018SRAM_strap1_128x8m81_1/a_n36_52# 018SRAM_cell1_dummy_128x8m81_7/m2_90_n50#
+ VSUBS 018SRAM_cell1_dummy_128x8m81_7/m2_390_n50# 018SRAM_strap1_128x8m81_1/w_n68_622#
+ 018SRAM_strap1_128x8m81_1/a_n36_52# 018SRAM_strap1_128x8m81_1/w_n68_622# VSUBS x018SRAM_cell1_dummy_128x8m81
X018SRAM_cell1_dummy_128x8m81_8 018SRAM_strap1_128x8m81_1/a_n36_52# 018SRAM_cell1_dummy_128x8m81_8/m2_90_n50#
+ VSUBS 018SRAM_cell1_dummy_128x8m81_8/m2_390_n50# 018SRAM_strap1_128x8m81_1/w_n68_622#
+ 018SRAM_strap1_128x8m81_1/a_n36_52# 018SRAM_strap1_128x8m81_1/w_n68_622# VSUBS x018SRAM_cell1_dummy_128x8m81
X018SRAM_cell1_dummy_128x8m81_9 018SRAM_strap1_128x8m81_1/a_n36_52# 018SRAM_cell1_dummy_128x8m81_9/m2_90_n50#
+ VSUBS 018SRAM_cell1_dummy_128x8m81_9/m2_390_n50# 018SRAM_strap1_128x8m81_1/w_n68_622#
+ 018SRAM_strap1_128x8m81_1/a_n36_52# 018SRAM_strap1_128x8m81_1/w_n68_622# VSUBS x018SRAM_cell1_dummy_128x8m81
.ends

.subckt new_dummyrow_unit_128x8m81 018SRAM_cell1_dummy_128x8m81_9/m2_390_n50# 018SRAM_cell1_dummy_128x8m81_8/m2_390_n50#
+ 018SRAM_cell1_dummy_128x8m81_9/m2_90_n50# 018SRAM_cell1_dummy_128x8m81_10/m2_90_n50#
+ 018SRAM_cell1_dummy_128x8m81_11/m2_90_n50# 018SRAM_cell1_dummy_128x8m81_0/m2_90_n50#
+ 018SRAM_cell1_dummy_128x8m81_1/m2_90_n50# 018SRAM_cell1_dummy_128x8m81_12/m2_90_n50#
+ 018SRAM_cell1_dummy_128x8m81_2/m2_90_n50# 018SRAM_cell1_dummy_128x8m81_13/m2_90_n50#
+ 018SRAM_cell1_dummy_128x8m81_14/m2_90_n50# 018SRAM_cell1_dummy_128x8m81_3/m2_90_n50#
+ 018SRAM_cell1_dummy_128x8m81_4/m2_90_n50# 018SRAM_cell1_dummy_128x8m81_15/m2_90_n50#
+ 018SRAM_cell1_dummy_128x8m81_5/m2_90_n50# 018SRAM_strap1_128x8m81_1/a_n36_52# 018SRAM_cell1_dummy_128x8m81_6/m2_90_n50#
+ 018SRAM_cell1_dummy_128x8m81_0/m2_390_n50# 018SRAM_cell1_dummy_128x8m81_10/m2_390_n50#
+ 018SRAM_cell1_dummy_128x8m81_1/m2_390_n50# 018SRAM_cell1_dummy_128x8m81_2/m2_390_n50#
+ 018SRAM_cell1_dummy_128x8m81_12/m2_390_n50# 018SRAM_cell1_dummy_128x8m81_7/m2_90_n50#
+ 018SRAM_cell1_dummy_128x8m81_3/m2_390_n50# 018SRAM_cell1_dummy_128x8m81_11/m2_390_n50#
+ 018SRAM_cell1_dummy_128x8m81_13/m2_390_n50# 018SRAM_cell1_dummy_128x8m81_4/m2_390_n50#
+ 018SRAM_cell1_dummy_128x8m81_14/m2_390_n50# 018SRAM_cell1_dummy_128x8m81_5/m2_390_n50#
+ 018SRAM_cell1_dummy_128x8m81_6/m2_390_n50# VSUBS 018SRAM_cell1_dummy_128x8m81_15/m2_390_n50#
+ 018SRAM_cell1_dummy_128x8m81_8/m2_90_n50# 018SRAM_cell1_dummy_128x8m81_7/m2_390_n50#
+ 018SRAM_strap1_128x8m81_1/w_n68_622#
X018SRAM_cell1_dummy_128x8m81_10 018SRAM_strap1_128x8m81_1/a_n36_52# 018SRAM_cell1_dummy_128x8m81_10/m2_90_n50#
+ VSUBS 018SRAM_cell1_dummy_128x8m81_10/m2_390_n50# 018SRAM_strap1_128x8m81_1/w_n68_622#
+ 018SRAM_strap1_128x8m81_1/a_n36_52# 018SRAM_strap1_128x8m81_1/w_n68_622# VSUBS x018SRAM_cell1_dummy_128x8m81
X018SRAM_cell1_dummy_128x8m81_11 018SRAM_strap1_128x8m81_1/a_n36_52# 018SRAM_cell1_dummy_128x8m81_11/m2_90_n50#
+ VSUBS 018SRAM_cell1_dummy_128x8m81_11/m2_390_n50# 018SRAM_strap1_128x8m81_1/w_n68_622#
+ 018SRAM_strap1_128x8m81_1/a_n36_52# 018SRAM_strap1_128x8m81_1/w_n68_622# VSUBS x018SRAM_cell1_dummy_128x8m81
X018SRAM_cell1_dummy_128x8m81_12 018SRAM_strap1_128x8m81_1/a_n36_52# 018SRAM_cell1_dummy_128x8m81_12/m2_90_n50#
+ VSUBS 018SRAM_cell1_dummy_128x8m81_12/m2_390_n50# 018SRAM_strap1_128x8m81_1/w_n68_622#
+ 018SRAM_strap1_128x8m81_1/a_n36_52# 018SRAM_strap1_128x8m81_1/w_n68_622# VSUBS x018SRAM_cell1_dummy_128x8m81
X018SRAM_cell1_dummy_128x8m81_13 018SRAM_strap1_128x8m81_1/a_n36_52# 018SRAM_cell1_dummy_128x8m81_13/m2_90_n50#
+ VSUBS 018SRAM_cell1_dummy_128x8m81_13/m2_390_n50# 018SRAM_strap1_128x8m81_1/w_n68_622#
+ 018SRAM_strap1_128x8m81_1/a_n36_52# 018SRAM_strap1_128x8m81_1/w_n68_622# VSUBS x018SRAM_cell1_dummy_128x8m81
X018SRAM_cell1_dummy_128x8m81_14 018SRAM_strap1_128x8m81_1/a_n36_52# 018SRAM_cell1_dummy_128x8m81_14/m2_90_n50#
+ VSUBS 018SRAM_cell1_dummy_128x8m81_14/m2_390_n50# 018SRAM_strap1_128x8m81_1/w_n68_622#
+ 018SRAM_strap1_128x8m81_1/a_n36_52# 018SRAM_strap1_128x8m81_1/w_n68_622# VSUBS x018SRAM_cell1_dummy_128x8m81
X018SRAM_cell1_dummy_128x8m81_15 018SRAM_strap1_128x8m81_1/a_n36_52# 018SRAM_cell1_dummy_128x8m81_15/m2_90_n50#
+ VSUBS 018SRAM_cell1_dummy_128x8m81_15/m2_390_n50# 018SRAM_strap1_128x8m81_1/w_n68_622#
+ 018SRAM_strap1_128x8m81_1/a_n36_52# 018SRAM_strap1_128x8m81_1/w_n68_622# VSUBS x018SRAM_cell1_dummy_128x8m81
X018SRAM_cell1_dummy_128x8m81_0 018SRAM_strap1_128x8m81_1/a_n36_52# 018SRAM_cell1_dummy_128x8m81_0/m2_90_n50#
+ VSUBS 018SRAM_cell1_dummy_128x8m81_0/m2_390_n50# 018SRAM_strap1_128x8m81_1/w_n68_622#
+ 018SRAM_strap1_128x8m81_1/a_n36_52# 018SRAM_strap1_128x8m81_1/w_n68_622# VSUBS x018SRAM_cell1_dummy_128x8m81
X018SRAM_cell1_dummy_128x8m81_1 018SRAM_strap1_128x8m81_1/a_n36_52# 018SRAM_cell1_dummy_128x8m81_1/m2_90_n50#
+ VSUBS 018SRAM_cell1_dummy_128x8m81_1/m2_390_n50# 018SRAM_strap1_128x8m81_1/w_n68_622#
+ 018SRAM_strap1_128x8m81_1/a_n36_52# 018SRAM_strap1_128x8m81_1/w_n68_622# VSUBS x018SRAM_cell1_dummy_128x8m81
X018SRAM_cell1_dummy_128x8m81_3 018SRAM_strap1_128x8m81_1/a_n36_52# 018SRAM_cell1_dummy_128x8m81_3/m2_90_n50#
+ VSUBS 018SRAM_cell1_dummy_128x8m81_3/m2_390_n50# 018SRAM_strap1_128x8m81_1/w_n68_622#
+ 018SRAM_strap1_128x8m81_1/a_n36_52# 018SRAM_strap1_128x8m81_1/w_n68_622# VSUBS x018SRAM_cell1_dummy_128x8m81
X018SRAM_cell1_dummy_128x8m81_2 018SRAM_strap1_128x8m81_1/a_n36_52# 018SRAM_cell1_dummy_128x8m81_2/m2_90_n50#
+ VSUBS 018SRAM_cell1_dummy_128x8m81_2/m2_390_n50# 018SRAM_strap1_128x8m81_1/w_n68_622#
+ 018SRAM_strap1_128x8m81_1/a_n36_52# 018SRAM_strap1_128x8m81_1/w_n68_622# VSUBS x018SRAM_cell1_dummy_128x8m81
X018SRAM_cell1_dummy_128x8m81_4 018SRAM_strap1_128x8m81_1/a_n36_52# 018SRAM_cell1_dummy_128x8m81_4/m2_90_n50#
+ VSUBS 018SRAM_cell1_dummy_128x8m81_4/m2_390_n50# 018SRAM_strap1_128x8m81_1/w_n68_622#
+ 018SRAM_strap1_128x8m81_1/a_n36_52# 018SRAM_strap1_128x8m81_1/w_n68_622# VSUBS x018SRAM_cell1_dummy_128x8m81
X018SRAM_cell1_dummy_128x8m81_5 018SRAM_strap1_128x8m81_1/a_n36_52# 018SRAM_cell1_dummy_128x8m81_5/m2_90_n50#
+ VSUBS 018SRAM_cell1_dummy_128x8m81_5/m2_390_n50# 018SRAM_strap1_128x8m81_1/w_n68_622#
+ 018SRAM_strap1_128x8m81_1/a_n36_52# 018SRAM_strap1_128x8m81_1/w_n68_622# VSUBS x018SRAM_cell1_dummy_128x8m81
X018SRAM_cell1_dummy_128x8m81_6 018SRAM_strap1_128x8m81_1/a_n36_52# 018SRAM_cell1_dummy_128x8m81_6/m2_90_n50#
+ VSUBS 018SRAM_cell1_dummy_128x8m81_6/m2_390_n50# 018SRAM_strap1_128x8m81_1/w_n68_622#
+ 018SRAM_strap1_128x8m81_1/a_n36_52# 018SRAM_strap1_128x8m81_1/w_n68_622# VSUBS x018SRAM_cell1_dummy_128x8m81
X018SRAM_cell1_dummy_128x8m81_7 018SRAM_strap1_128x8m81_1/a_n36_52# 018SRAM_cell1_dummy_128x8m81_7/m2_90_n50#
+ VSUBS 018SRAM_cell1_dummy_128x8m81_7/m2_390_n50# 018SRAM_strap1_128x8m81_1/w_n68_622#
+ 018SRAM_strap1_128x8m81_1/a_n36_52# 018SRAM_strap1_128x8m81_1/w_n68_622# VSUBS x018SRAM_cell1_dummy_128x8m81
X018SRAM_cell1_dummy_128x8m81_8 018SRAM_strap1_128x8m81_1/a_n36_52# 018SRAM_cell1_dummy_128x8m81_8/m2_90_n50#
+ VSUBS 018SRAM_cell1_dummy_128x8m81_8/m2_390_n50# 018SRAM_strap1_128x8m81_1/w_n68_622#
+ 018SRAM_strap1_128x8m81_1/a_n36_52# 018SRAM_strap1_128x8m81_1/w_n68_622# VSUBS x018SRAM_cell1_dummy_128x8m81
X018SRAM_cell1_dummy_128x8m81_9 018SRAM_strap1_128x8m81_1/a_n36_52# 018SRAM_cell1_dummy_128x8m81_9/m2_90_n50#
+ VSUBS 018SRAM_cell1_dummy_128x8m81_9/m2_390_n50# 018SRAM_strap1_128x8m81_1/w_n68_622#
+ 018SRAM_strap1_128x8m81_1/a_n36_52# 018SRAM_strap1_128x8m81_1/w_n68_622# VSUBS x018SRAM_cell1_dummy_128x8m81
.ends

.subckt ldummy_128x4_128x8m81 018SRAM_cell1_dummy_128x8m81_29/m2_90_n50# 018SRAM_cell1_dummy_128x8m81_8/m2_390_n50#
+ 018SRAM_cell1_cutPC_128x8m81_5/a_246_342# new_dummyrow_unit_128x8m81_0/018SRAM_cell1_dummy_128x8m81_14/m2_390_n50#
+ new_dummyrow_unit_01_128x8m81_0/018SRAM_cell1_dummy_128x8m81_4/m2_90_n50# 018SRAM_cell1_cutPC_128x8m81_5/a_246_712#
+ 018SRAM_cell1_dummy_128x8m81_17/m2_390_n50# new_dummyrow_unit_128x8m81_0/018SRAM_cell1_dummy_128x8m81_3/m2_90_n50#
+ new_dummyrow_unit_128x8m81_0/018SRAM_cell1_dummy_128x8m81_14/m2_90_n50# 018SRAM_cell1_dummy_128x8m81_9/m2_390_n50#
+ 018SRAM_cell1_dummy_128x8m81_18/m2_390_n50# new_dummyrow_unit_128x8m81_0/018SRAM_cell1_dummy_128x8m81_15/m2_390_n50#
+ 018SRAM_cell1_dummy_128x8m81_19/m2_390_n50# 018SRAM_cell1_cutPC_128x8m81_13/a_246_342#
+ 018SRAM_cell1_dummy_128x8m81_9/m2_90_n50# 018SRAM_cell1_cutPC_128x8m81_6/a_246_342#
+ 018SRAM_cell1_cutPC_128x8m81_1/w_n68_622# new_dummyrow_unit_01_128x8m81_0/018SRAM_cell1_dummy_128x8m81_5/m2_90_n50#
+ new_dummyrow_unit_128x8m81_0/018SRAM_cell1_dummy_128x8m81_4/m2_90_n50# 018SRAM_cell1_cutPC_128x8m81_6/a_246_712#
+ new_dummyrow_unit_128x8m81_0/018SRAM_cell1_dummy_128x8m81_15/m2_90_n50# new_dummyrow_unit_01_128x8m81_0/018SRAM_cell1_dummy_128x8m81_0/m2_390_n50#
+ new_dummyrow_unit_01_128x8m81_0/018SRAM_cell1_dummy_128x8m81_1/m2_390_n50# 018SRAM_cell1_cutPC_128x8m81_14/a_246_342#
+ 018SRAM_cell1_dummy_128x8m81_10/m2_90_n50# new_dummyrow_unit_01_128x8m81_0/018SRAM_cell1_dummy_128x8m81_2/m2_390_n50#
+ 018SRAM_cell1_cutPC_128x8m81_7/a_246_342# 018SRAM_cell1_dummy_128x8m81_20/m2_90_n50#
+ new_dummyrow_unit_01_128x8m81_0/018SRAM_cell1_dummy_128x8m81_6/m2_90_n50# new_dummyrow_unit_01_128x8m81_0/018SRAM_cell1_dummy_128x8m81_3/m2_390_n50#
+ 018SRAM_cell1_cutPC_128x8m81_9/w_n68_622# 018SRAM_cell1_cutPC_128x8m81_8/a_246_712#
+ new_dummyrow_unit_128x8m81_0/018SRAM_cell1_dummy_128x8m81_5/m2_90_n50# 018SRAM_cell1_dummy_128x8m81_30/m2_90_n50#
+ new_dummyrow_unit_01_128x8m81_0/018SRAM_cell1_dummy_128x8m81_4/m2_390_n50# new_dummyrow_unit_01_128x8m81_0/018SRAM_cell1_dummy_128x8m81_5/m2_390_n50#
+ 018SRAM_cell1_dummy_128x8m81_11/m2_90_n50# 018SRAM_cell1_dummy_128x8m81_0/m2_90_n50#
+ 018SRAM_cell1_cutPC_128x8m81_15/a_246_342# new_dummyrow_unit_01_128x8m81_0/018SRAM_cell1_dummy_128x8m81_6/m2_390_n50#
+ 018SRAM_cell1_dummy_128x8m81_21/m2_90_n50# 018SRAM_cell1_cutPC_128x8m81_8/a_246_342#
+ new_dummyrow_unit_01_128x8m81_0/018SRAM_cell1_dummy_128x8m81_7/m2_90_n50# new_dummyrow_unit_01_128x8m81_0/018SRAM_cell1_dummy_128x8m81_7/m2_390_n50#
+ new_dummyrow_unit_128x8m81_0/018SRAM_cell1_dummy_128x8m81_6/m2_90_n50# new_dummyrow_unit_01_128x8m81_0/018SRAM_cell1_dummy_128x8m81_8/m2_390_n50#
+ 018SRAM_cell1_dummy_128x8m81_31/m2_90_n50# new_dummyrow_unit_01_128x8m81_0/018SRAM_cell1_dummy_128x8m81_9/m2_390_n50#
+ new_dummyrow_unit_128x8m81_0/018SRAM_cell1_dummy_128x8m81_0/m2_390_n50# new_dummyrow_unit_128x8m81_0/018SRAM_cell1_dummy_128x8m81_1/m2_390_n50#
+ 018SRAM_cell1_dummy_128x8m81_12/m2_90_n50# 018SRAM_cell1_dummy_128x8m81_1/m2_90_n50#
+ 018SRAM_cell1_cutPC_128x8m81_10/m3_n36_330# new_dummyrow_unit_128x8m81_0/018SRAM_cell1_dummy_128x8m81_2/m2_390_n50#
+ 018SRAM_cell1_dummy_128x8m81_22/m2_90_n50# 018SRAM_cell1_cutPC_128x8m81_9/a_246_342#
+ 018SRAM_cell1_cutPC_128x8m81_4/w_n68_622# new_dummyrow_unit_128x8m81_0/018SRAM_cell1_dummy_128x8m81_7/m2_90_n50#
+ new_dummyrow_unit_01_128x8m81_0/018SRAM_cell1_dummy_128x8m81_8/m2_90_n50# 018SRAM_cell1_cutPC_128x8m81_11/m3_n36_330#
+ new_dummyrow_unit_128x8m81_0/018SRAM_cell1_dummy_128x8m81_3/m2_390_n50# 018SRAM_cell1_cutPC_128x8m81_12/m3_n36_330#
+ new_dummyrow_unit_128x8m81_0/018SRAM_cell1_dummy_128x8m81_4/m2_390_n50# 018SRAM_cell1_cutPC_128x8m81_13/m3_n36_330#
+ 018SRAM_cell1_dummy_128x8m81_2/m2_90_n50# new_dummyrow_unit_128x8m81_0/018SRAM_cell1_dummy_128x8m81_5/m2_390_n50#
+ 018SRAM_cell1_dummy_128x8m81_13/m2_90_n50# 018SRAM_cell1_cutPC_128x8m81_3/w_n68_622#
+ 018SRAM_cell1_dummy_128x8m81_30/m2_390_n50# 018SRAM_cell1_dummy_128x8m81_23/m2_90_n50#
+ 018SRAM_cell1_cutPC_128x8m81_14/m3_n36_330# new_dummyrow_unit_128x8m81_0/018SRAM_cell1_dummy_128x8m81_6/m2_390_n50#
+ new_dummyrow_unit_01_128x8m81_0/018SRAM_cell1_dummy_128x8m81_9/m2_90_n50# new_dummyrow_unit_01_128x8m81_0/018SRAM_cell1_dummy_128x8m81_10/m2_90_n50#
+ 018SRAM_cell1_cutPC_128x8m81_5/w_n68_622# new_dummyrow_unit_128x8m81_0/018SRAM_cell1_dummy_128x8m81_8/m2_90_n50#
+ 018SRAM_cell1_dummy_128x8m81_31/m2_390_n50# 018SRAM_cell1_cutPC_128x8m81_15/m3_n36_330#
+ new_dummyrow_unit_128x8m81_0/018SRAM_cell1_dummy_128x8m81_7/m2_390_n50# new_dummyrow_unit_128x8m81_0/018SRAM_cell1_dummy_128x8m81_8/m2_390_n50#
+ 018SRAM_cell1_dummy_128x8m81_14/m2_90_n50# new_dummyrow_unit_128x8m81_0/018SRAM_cell1_dummy_128x8m81_9/m2_390_n50#
+ 018SRAM_cell1_dummy_128x8m81_3/m2_90_n50# 018SRAM_cell1_dummy_128x8m81_24/m2_90_n50#
+ new_dummyrow_unit_01_128x8m81_0/018SRAM_cell1_dummy_128x8m81_11/m2_90_n50# 018SRAM_cell1_cutPC_128x8m81_0/a_246_342#
+ 018SRAM_cell1_cutPC_128x8m81_6/w_n68_622# new_dummyrow_unit_128x8m81_0/018SRAM_cell1_dummy_128x8m81_9/m2_90_n50#
+ 018SRAM_cell1_dummy_128x8m81_4/m2_90_n50# 018SRAM_cell1_dummy_128x8m81_15/m2_90_n50#
+ 018SRAM_cell1_cutPC_128x8m81_1/a_246_342# new_dummyrow_unit_01_128x8m81_0/018SRAM_cell1_dummy_128x8m81_12/m2_90_n50#
+ 018SRAM_cell1_cutPC_128x8m81_0/m3_n36_330# new_dummyrow_unit_01_128x8m81_0/018SRAM_cell1_dummy_128x8m81_0/m2_90_n50#
+ 018SRAM_cell1_dummy_128x8m81_25/m2_90_n50# 018SRAM_cell1_dummy_128x8m81_20/m2_390_n50#
+ 018SRAM_cell1_cutPC_128x8m81_1/a_246_712# new_dummyrow_unit_128x8m81_0/018SRAM_cell1_dummy_128x8m81_10/m2_90_n50#
+ 018SRAM_cell1_cutPC_128x8m81_1/m3_n36_330# 018SRAM_cell1_dummy_128x8m81_21/m2_390_n50#
+ 018SRAM_cell1_cutPC_128x8m81_2/m3_n36_330# 018SRAM_cell1_dummy_128x8m81_22/m2_390_n50#
+ 018SRAM_cell1_dummy_128x8m81_5/m2_90_n50# 018SRAM_cell1_dummy_128x8m81_16/m2_90_n50#
+ 018SRAM_cell1_cutPC_128x8m81_3/m3_n36_330# 018SRAM_cell1_dummy_128x8m81_23/m2_390_n50#
+ 018SRAM_cell1_cutPC_128x8m81_2/a_246_342# 018SRAM_cell1_dummy_128x8m81_26/m2_90_n50#
+ new_dummyrow_unit_01_128x8m81_0/018SRAM_cell1_dummy_128x8m81_1/m2_90_n50# new_dummyrow_unit_01_128x8m81_0/018SRAM_cell1_dummy_128x8m81_13/m2_90_n50#
+ 018SRAM_cell1_cutPC_128x8m81_4/m3_n36_330# 018SRAM_cell1_cutPC_128x8m81_8/w_n68_622#
+ 018SRAM_cell1_cutPC_128x8m81_9/a_246_712# 018SRAM_cell1_dummy_128x8m81_24/m2_390_n50#
+ new_dummyrow_unit_128x8m81_0/018SRAM_cell1_dummy_128x8m81_0/m2_90_n50# new_dummyrow_unit_128x8m81_0/018SRAM_cell1_dummy_128x8m81_11/m2_90_n50#
+ 018SRAM_cell1_cutPC_128x8m81_5/m3_n36_330# 018SRAM_cell1_dummy_128x8m81_25/m2_390_n50#
+ 018SRAM_cell1_cutPC_128x8m81_6/m3_n36_330# 018SRAM_cell1_dummy_128x8m81_26/m2_390_n50#
+ 018SRAM_cell1_dummy_128x8m81_6/m2_90_n50# 018SRAM_cell1_cutPC_128x8m81_7/m3_n36_330#
+ VSS 018SRAM_cell1_dummy_128x8m81_17/m2_90_n50# 018SRAM_cell1_cutPC_128x8m81_10/a_246_342#
+ 018SRAM_cell1_dummy_128x8m81_27/m2_390_n50# new_dummyrow_unit_01_128x8m81_0/018SRAM_cell1_dummy_128x8m81_14/m2_90_n50#
+ 018SRAM_cell1_dummy_128x8m81_27/m2_90_n50# 018SRAM_cell1_cutPC_128x8m81_8/m3_n36_330#
+ 018SRAM_cell1_cutPC_128x8m81_3/a_246_342# 018SRAM_cell1_dummy_128x8m81_0/m2_390_n50#
+ new_dummyrow_unit_01_128x8m81_0/018SRAM_cell1_dummy_128x8m81_2/m2_90_n50# new_dummyrow_unit_128x8m81_0/018SRAM_cell1_dummy_128x8m81_1/m2_90_n50#
+ 018SRAM_cell1_dummy_128x8m81_28/m2_390_n50# 018SRAM_cell1_cutPC_128x8m81_3/a_246_712#
+ new_dummyrow_unit_128x8m81_0/018SRAM_cell1_dummy_128x8m81_12/m2_90_n50# 018SRAM_cell1_dummy_128x8m81_1/m2_390_n50#
+ 018SRAM_cell1_cutPC_128x8m81_9/m3_n36_330# 018SRAM_cell1_dummy_128x8m81_29/m2_390_n50#
+ 018SRAM_cell1_dummy_128x8m81_10/m2_390_n50# 018SRAM_cell1_dummy_128x8m81_2/m2_390_n50#
+ 018SRAM_cell1_dummy_128x8m81_11/m2_390_n50# new_dummyrow_unit_01_128x8m81_0/018SRAM_cell1_dummy_128x8m81_10/m2_390_n50#
+ 018SRAM_cell1_dummy_128x8m81_7/m2_90_n50# 018SRAM_cell1_cutPC_128x8m81_11/a_246_342#
+ 018SRAM_cell1_dummy_128x8m81_18/m2_90_n50# 018SRAM_cell1_dummy_128x8m81_3/m2_390_n50#
+ 018SRAM_cell1_dummy_128x8m81_12/m2_390_n50# new_dummyrow_unit_01_128x8m81_0/018SRAM_cell1_dummy_128x8m81_11/m2_390_n50#
+ 018SRAM_cell1_128x8m81_1/w_n68_622# 018SRAM_cell1_cutPC_128x8m81_4/a_246_342# new_dummyrow_unit_01_128x8m81_0/018SRAM_cell1_dummy_128x8m81_3/m2_90_n50#
+ 018SRAM_cell1_dummy_128x8m81_4/m2_390_n50# new_dummyrow_unit_01_128x8m81_0/018SRAM_cell1_dummy_128x8m81_15/m2_90_n50#
+ 018SRAM_cell1_dummy_128x8m81_28/m2_90_n50# 018SRAM_cell1_dummy_128x8m81_13/m2_390_n50#
+ new_dummyrow_unit_128x8m81_0/018SRAM_cell1_dummy_128x8m81_2/m2_90_n50# new_dummyrow_unit_128x8m81_0/018SRAM_cell1_dummy_128x8m81_10/m2_390_n50#
+ new_dummyrow_unit_01_128x8m81_0/018SRAM_cell1_dummy_128x8m81_12/m2_390_n50# 018SRAM_cell1_cutPC_128x8m81_4/a_246_712#
+ new_dummyrow_unit_128x8m81_0/018SRAM_cell1_dummy_128x8m81_13/m2_90_n50# 018SRAM_cell1_dummy_128x8m81_5/m2_390_n50#
+ new_dummyrow_unit_128x8m81_0/018SRAM_cell1_dummy_128x8m81_11/m2_390_n50# new_dummyrow_unit_01_128x8m81_0/018SRAM_cell1_dummy_128x8m81_13/m2_390_n50#
+ 018SRAM_cell1_dummy_128x8m81_14/m2_390_n50# 018SRAM_cell1_dummy_128x8m81_6/m2_390_n50#
+ new_dummyrow_unit_128x8m81_0/018SRAM_cell1_dummy_128x8m81_12/m2_390_n50# new_dummyrow_unit_01_128x8m81_0/018SRAM_cell1_dummy_128x8m81_14/m2_390_n50#
+ 018SRAM_cell1_dummy_128x8m81_15/m2_390_n50# 018SRAM_cell1_dummy_128x8m81_19/m2_90_n50#
+ 018SRAM_cell1_cutPC_128x8m81_12/a_246_342# 018SRAM_cell1_dummy_128x8m81_7/m2_390_n50#
+ 018SRAM_cell1_dummy_128x8m81_8/m2_90_n50# new_dummyrow_unit_128x8m81_0/018SRAM_cell1_dummy_128x8m81_13/m2_390_n50#
+ VSUBS new_dummyrow_unit_01_128x8m81_0/018SRAM_cell1_dummy_128x8m81_15/m2_390_n50#
+ 018SRAM_cell1_dummy_128x8m81_16/m2_390_n50# 018SRAM_cell1_128x8m81_0/w_n68_622#
X018SRAM_cell1_cutPC_128x8m81_2 VSUBS 018SRAM_cell1_128x8m81_1/a_444_n42# 018SRAM_cell1_cutPC_128x8m81_2/a_246_342#
+ 018SRAM_cell1_cutPC_128x8m81_9/a_246_712# 018SRAM_cell1_cutPC_128x8m81_2/m3_n36_330#
+ 018SRAM_cell1_128x8m81_1/a_36_n42# 018SRAM_cell1_cutPC_128x8m81_9/w_n68_622# VSUBS
+ x018SRAM_cell1_cutPC_128x8m81
X018SRAM_cell1_128x8m81_1 VSUBS 018SRAM_cell1_128x8m81_1/a_444_n42# VSUBS 018SRAM_cell1_128x8m81_1/w_n68_622#
+ VSUBS 018SRAM_cell1_128x8m81_1/a_36_n42# 018SRAM_cell1_128x8m81_1/w_n68_622# VSUBS
+ x018SRAM_cell1_128x8m81
X018SRAM_cell1_dummy_128x8m81_31 VSUBS 018SRAM_cell1_dummy_128x8m81_31/m2_90_n50#
+ VSUBS 018SRAM_cell1_dummy_128x8m81_31/m2_390_n50# 018SRAM_cell1_128x8m81_0/w_n68_622#
+ VSUBS 018SRAM_cell1_128x8m81_0/w_n68_622# VSUBS x018SRAM_cell1_dummy_128x8m81
X018SRAM_cell1_dummy_128x8m81_20 VSUBS 018SRAM_cell1_dummy_128x8m81_20/m2_90_n50#
+ VSUBS 018SRAM_cell1_dummy_128x8m81_20/m2_390_n50# 018SRAM_cell1_128x8m81_0/w_n68_622#
+ VSUBS 018SRAM_cell1_128x8m81_0/w_n68_622# VSUBS x018SRAM_cell1_dummy_128x8m81
X018SRAM_cell1_cutPC_128x8m81_4 VSUBS 018SRAM_cell1_128x8m81_1/a_444_n42# 018SRAM_cell1_cutPC_128x8m81_4/a_246_342#
+ 018SRAM_cell1_cutPC_128x8m81_4/a_246_712# 018SRAM_cell1_cutPC_128x8m81_4/m3_n36_330#
+ 018SRAM_cell1_128x8m81_1/a_36_n42# 018SRAM_cell1_cutPC_128x8m81_4/w_n68_622# VSUBS
+ x018SRAM_cell1_cutPC_128x8m81
X018SRAM_cell1_cutPC_128x8m81_3 VSUBS 018SRAM_cell1_128x8m81_1/a_444_n42# 018SRAM_cell1_cutPC_128x8m81_3/a_246_342#
+ 018SRAM_cell1_cutPC_128x8m81_3/a_246_712# 018SRAM_cell1_cutPC_128x8m81_3/m3_n36_330#
+ 018SRAM_cell1_128x8m81_1/a_36_n42# 018SRAM_cell1_cutPC_128x8m81_3/w_n68_622# VSUBS
+ x018SRAM_cell1_cutPC_128x8m81
X018SRAM_cell1_dummy_128x8m81_21 VSUBS 018SRAM_cell1_dummy_128x8m81_21/m2_90_n50#
+ VSUBS 018SRAM_cell1_dummy_128x8m81_21/m2_390_n50# 018SRAM_cell1_128x8m81_0/w_n68_622#
+ VSUBS 018SRAM_cell1_128x8m81_0/w_n68_622# VSUBS x018SRAM_cell1_dummy_128x8m81
X018SRAM_cell1_dummy_128x8m81_10 VSUBS 018SRAM_cell1_dummy_128x8m81_10/m2_90_n50#
+ VSUBS 018SRAM_cell1_dummy_128x8m81_10/m2_390_n50# 018SRAM_cell1_128x8m81_0/w_n68_622#
+ VSUBS 018SRAM_cell1_128x8m81_0/w_n68_622# VSUBS x018SRAM_cell1_dummy_128x8m81
X018SRAM_cell1_cutPC_128x8m81_5 VSUBS 018SRAM_cell1_128x8m81_1/a_444_n42# 018SRAM_cell1_cutPC_128x8m81_5/a_246_342#
+ 018SRAM_cell1_cutPC_128x8m81_5/a_246_712# 018SRAM_cell1_cutPC_128x8m81_5/m3_n36_330#
+ 018SRAM_cell1_128x8m81_1/a_36_n42# 018SRAM_cell1_cutPC_128x8m81_5/w_n68_622# VSUBS
+ x018SRAM_cell1_cutPC_128x8m81
X018SRAM_cell1_dummy_128x8m81_22 VSUBS 018SRAM_cell1_dummy_128x8m81_22/m2_90_n50#
+ VSUBS 018SRAM_cell1_dummy_128x8m81_22/m2_390_n50# 018SRAM_cell1_128x8m81_0/w_n68_622#
+ VSUBS 018SRAM_cell1_128x8m81_0/w_n68_622# VSUBS x018SRAM_cell1_dummy_128x8m81
X018SRAM_cell1_dummy_128x8m81_11 VSUBS 018SRAM_cell1_dummy_128x8m81_11/m2_90_n50#
+ VSUBS 018SRAM_cell1_dummy_128x8m81_11/m2_390_n50# 018SRAM_cell1_128x8m81_0/w_n68_622#
+ VSUBS 018SRAM_cell1_128x8m81_0/w_n68_622# VSUBS x018SRAM_cell1_dummy_128x8m81
X018SRAM_cell1_cutPC_128x8m81_6 VSUBS 018SRAM_cell1_128x8m81_1/a_444_n42# 018SRAM_cell1_cutPC_128x8m81_6/a_246_342#
+ 018SRAM_cell1_cutPC_128x8m81_6/a_246_712# 018SRAM_cell1_cutPC_128x8m81_6/m3_n36_330#
+ 018SRAM_cell1_128x8m81_1/a_36_n42# 018SRAM_cell1_cutPC_128x8m81_6/w_n68_622# VSUBS
+ x018SRAM_cell1_cutPC_128x8m81
X018SRAM_cell1_dummy_128x8m81_23 VSUBS 018SRAM_cell1_dummy_128x8m81_23/m2_90_n50#
+ VSUBS 018SRAM_cell1_dummy_128x8m81_23/m2_390_n50# 018SRAM_cell1_128x8m81_0/w_n68_622#
+ VSUBS 018SRAM_cell1_128x8m81_0/w_n68_622# VSUBS x018SRAM_cell1_dummy_128x8m81
X018SRAM_cell1_dummy_128x8m81_12 VSUBS 018SRAM_cell1_dummy_128x8m81_12/m2_90_n50#
+ VSUBS 018SRAM_cell1_dummy_128x8m81_12/m2_390_n50# 018SRAM_cell1_128x8m81_0/w_n68_622#
+ VSUBS 018SRAM_cell1_128x8m81_0/w_n68_622# VSUBS x018SRAM_cell1_dummy_128x8m81
X018SRAM_cell1_cutPC_128x8m81_7 VSUBS 018SRAM_cell1_128x8m81_1/a_444_n42# 018SRAM_cell1_cutPC_128x8m81_7/a_246_342#
+ 018SRAM_cell1_cutPC_128x8m81_8/a_246_712# 018SRAM_cell1_cutPC_128x8m81_7/m3_n36_330#
+ 018SRAM_cell1_128x8m81_1/a_36_n42# 018SRAM_cell1_cutPC_128x8m81_8/w_n68_622# VSUBS
+ x018SRAM_cell1_cutPC_128x8m81
X018SRAM_cell1_dummy_128x8m81_24 VSUBS 018SRAM_cell1_dummy_128x8m81_24/m2_90_n50#
+ VSUBS 018SRAM_cell1_dummy_128x8m81_24/m2_390_n50# 018SRAM_cell1_128x8m81_0/w_n68_622#
+ VSUBS 018SRAM_cell1_128x8m81_0/w_n68_622# VSUBS x018SRAM_cell1_dummy_128x8m81
X018SRAM_cell1_dummy_128x8m81_13 VSUBS 018SRAM_cell1_dummy_128x8m81_13/m2_90_n50#
+ VSUBS 018SRAM_cell1_dummy_128x8m81_13/m2_390_n50# 018SRAM_cell1_128x8m81_0/w_n68_622#
+ VSUBS 018SRAM_cell1_128x8m81_0/w_n68_622# VSUBS x018SRAM_cell1_dummy_128x8m81
X018SRAM_cell1_cutPC_128x8m81_8 VSUBS 018SRAM_cell1_128x8m81_1/a_444_n42# 018SRAM_cell1_cutPC_128x8m81_8/a_246_342#
+ 018SRAM_cell1_cutPC_128x8m81_8/a_246_712# 018SRAM_cell1_cutPC_128x8m81_8/m3_n36_330#
+ 018SRAM_cell1_128x8m81_1/a_36_n42# 018SRAM_cell1_cutPC_128x8m81_8/w_n68_622# VSUBS
+ x018SRAM_cell1_cutPC_128x8m81
Xnew_dummyrow_unit_01_128x8m81_0 new_dummyrow_unit_01_128x8m81_0/018SRAM_cell1_dummy_128x8m81_9/m2_390_n50#
+ new_dummyrow_unit_01_128x8m81_0/018SRAM_cell1_dummy_128x8m81_8/m2_390_n50# new_dummyrow_unit_01_128x8m81_0/018SRAM_cell1_dummy_128x8m81_9/m2_90_n50#
+ new_dummyrow_unit_01_128x8m81_0/018SRAM_cell1_dummy_128x8m81_10/m2_90_n50# new_dummyrow_unit_01_128x8m81_0/018SRAM_cell1_dummy_128x8m81_11/m2_90_n50#
+ new_dummyrow_unit_01_128x8m81_0/018SRAM_cell1_dummy_128x8m81_0/m2_90_n50# new_dummyrow_unit_01_128x8m81_0/018SRAM_cell1_dummy_128x8m81_12/m2_90_n50#