* NGSPICE file created from gf180mcu_fd_sc_mcu9t5v0__addf_1.ext - technology: gf180mcuA

.subckt gf180mcu_fd_sc_mcu9t5v0__addf_1 A B CI CO S VDD VSS
X0 a_1072_215# a_952_171# a_124_53# & Metric 1.00 nmos_6p0 w=0.59u l=0.6u
X1 VSS B a_1904_215# & Metric 1.00 nmos_6p0 w=0.59u l=0.6u
X2 VSS CI a_1072_215# & Metric 1.00 nmos_6p0 w=0.59u l=0.6u
X3 VDD B a_1924_573# w_n86_453# pmos_6p0 w=0.99u l=0.5u
X4 VSS a_124_53# S & Metric 1.00 nmos_6p0 w=1.18u l=0.6u
X5 a_124_53# CI a_680_594# w_n86_453# pmos_6p0 w=0.99u l=0.5u
X6 VDD A a_2764_573# w_n86_453# pmos_6p0 w=0.99u l=0.5u
X7 a_952_171# CI a_1904_215# & Metric 1.00 nmos_6p0 w=0.59u l=0.6u
X8 a_1924_573# A VDD w_n86_453# pmos_6p0 w=0.99u l=0.5u
X9 CO a_952_171# VSS & Metric 1.00 nmos_6p0 w=1.32u l=0.6u
X10 a_680_594# B a_512_594# w_n86_453# pmos_6p0 w=0.99u l=0.5u
X11 a_2764_573# B a_952_171# w_n86_453# pmos_6p0 w=0.99u l=0.5u
X12 a_124_53# CI a_680_215# & Metric 1.00 nmos_6p0 w=0.59u l=0.6u
X13 VDD A a_1072_594# w_n86_453# pmos_6p0 w=0.99u l=0.5u
X14 CO a_952_171# VDD w_n86_453# pmos_6p0 w=1.83u l=0.5u
X15 a_1072_215# B VSS & Metric 1.00 nmos_6p0 w=0.59u l=0.6u
X16 VDD a_124_53# S w_n86_453# pmos_6p0 w=1.83u l=0.5u
X17 a_680_215# B a_512_215# & Metric 1.00 nmos_6p0 w=0.59u l=0.6u
X18 a_1904_215# A VSS & Metric 1.00 nmos_6p0 w=0.59u l=0.6u
X19 VSS A a_2784_215# & Metric 1.00 nmos_6p0 w=0.59u l=0.6u
X20 VSS A a_1072_215# & Metric 1.00 nmos_6p0 w=0.59u l=0.6u
X21 a_512_215# A VSS & Metric 1.00 nmos_6p0 w=0.59u l=0.6u
X22 a_1072_594# a_952_171# a_124_53# w_n86_453# pmos_6p0 w=0.99u l=0.5u
X23 a_512_594# A VDD w_n86_453# pmos_6p0 w=0.99u l=0.5u
X24 a_1072_594# B VDD w_n86_453# pmos_6p0 w=0.99u l=0.5u
X25 a_952_171# CI a_1924_573# w_n86_453# pmos_6p0 w=0.99u l=0.5u
X26 a_2784_215# B a_952_171# & Metric 1.00 nmos_6p0 w=0.59u l=0.6u
X27 VDD CI a_1072_594# w_n86_453# pmos_6p0 w=0.99u l=0.5u
.ends



******* EOF

* NGSPICE file created from gf180mcu_fd_sc_mcu9t5v0__addf_1.ext - technology: gf180mcuA



******* EOF

* NGSPICE file created from gf180mcu_fd_sc_mcu9t5v0__addf_2.ext - technology: gf180mcuA

.subckt gf180mcu_fd_sc_mcu9t5v0__addf_2 A B CI CO S VDD VSS
X0 VDD A a_3016_573# w_n86_453# pmos_6p0 w=1.39u l=0.5u
X1 S a_132_25# VSS & Metric 1.00 nmos_6p0 w=1.32u l=0.6u
X2 VDD a_132_25# S w_n86_453# pmos_6p0 w=1.8u l=0.5u
X3 VDD A a_1284_573# w_n86_453# pmos_6p0 w=1.39u l=0.5u
X4 a_1184_129# CI a_2136_173# & Metric 1.00 nmos_6p0 w=0.8u l=0.6u
X5 VSS a_1184_129# CO & Metric 1.00 nmos_6p0 w=1.32u l=0.6u
X6 a_1284_573# B VDD w_n86_453# pmos_6p0 w=1.39u l=0.5u
X7 VDD CI a_1284_573# w_n86_453# pmos_6p0 w=1.39u l=0.5u
X8 a_3016_573# B a_1184_129# w_n86_453# pmos_6p0 w=1.39u l=0.5u
X9 a_132_25# CI a_912_173# & Metric 1.00 nmos_6p0 w=0.8u l=0.6u
X10 VSS A a_3016_173# & Metric 1.00 nmos_6p0 w=0.8u l=0.6u
X11 a_2136_573# A VDD w_n86_453# pmos_6p0 w=1.39u l=0.5u
X12 a_1184_129# CI a_2136_573# w_n86_453# pmos_6p0 w=1.39u l=0.5u
X13 a_1304_173# B VSS & Metric 1.00 nmos_6p0 w=0.8u l=0.6u
X14 a_912_173# B a_744_173# & Metric 1.00 nmos_6p0 w=0.8u l=0.6u
X15 a_132_25# CI a_912_573# w_n86_453# pmos_6p0 w=1.39u l=0.5u
X16 a_2136_173# A VSS & Metric 1.00 nmos_6p0 w=0.8u l=0.6u
X17 a_764_573# A VDD w_n86_453# pmos_6p0 w=1.39u l=0.5u
X18 CO a_1184_129# VDD w_n86_453# pmos_6p0 w=1.8u l=0.5u
X19 VDD B a_2136_573# w_n86_453# pmos_6p0 w=1.39u l=0.5u
X20 a_3016_173# B a_1184_129# & Metric 1.00 nmos_6p0 w=0.8u l=0.6u
X21 S a_132_25# VDD w_n86_453# pmos_6p0 w=1.8u l=0.5u
X22 a_1284_573# a_1184_129# a_132_25# w_n86_453# pmos_6p0 w=1.39u l=0.5u
X23 VSS a_132_25# S & Metric 1.00 nmos_6p0 w=1.32u l=0.6u
X24 VDD a_1184_129# CO w_n86_453# pmos_6p0 w=1.8u l=0.5u
X25 VSS A a_1304_173# & Metric 1.00 nmos_6p0 w=0.8u l=0.6u
X26 CO a_1184_129# VSS & Metric 1.00 nmos_6p0 w=1.32u l=0.6u
X27 a_744_173# A VSS & Metric 1.00 nmos_6p0 w=0.8u l=0.6u
X28 a_1304_173# a_1184_129# a_132_25# & Metric 1.00 nmos_6p0 w=0.8u l=0.6u
X29 VSS B a_2136_173# & Metric 1.00 nmos_6p0 w=0.8u l=0.6u
X30 VSS CI a_1304_173# & Metric 1.00 nmos_6p0 w=0.8u l=0.6u
X31 a_912_573# B a_764_573# w_n86_453# pmos_6p0 w=1.39u l=0.5u
.ends



******* EOF

* NGSPICE file created from gf180mcu_fd_sc_mcu9t5v0__addf_2.ext - technology: gf180mcuA



******* EOF

* NGSPICE file created from gf180mcu_fd_sc_mcu9t5v0__addf_4.ext - technology: gf180mcuA

.subckt gf180mcu_fd_sc_mcu9t5v0__addf_4 A B CI CO S VDD VSS
X0 a_1760_573# a_1640_129# a_140_25# w_n86_453# pmos_6p0 w=1.39u l=0.5u
X1 VDD B a_2612_573# w_n86_453# pmos_6p0 w=1.39u l=0.5u
X2 a_1200_573# A VDD w_n86_453# pmos_6p0 w=1.39u l=0.5u
X3 a_3452_573# B a_1640_129# w_n86_453# pmos_6p0 w=1.39u l=0.5u
X4 VSS A a_3472_173# & Metric 1.00 nmos_6p0 w=0.8u l=0.6u
X5 CO a_1640_129# VSS & Metric 1.00 nmos_6p0 w=1.32u l=0.6u
X6 a_2612_573# A VDD w_n86_453# pmos_6p0 w=1.39u l=0.5u
X7 CO a_1640_129# VDD w_n86_453# pmos_6p0 w=1.83u l=0.5u
X8 a_140_25# CI a_1368_173# & Metric 1.00 nmos_6p0 w=0.8u l=0.6u
X9 a_3472_173# B a_1640_129# & Metric 1.00 nmos_6p0 w=0.8u l=0.6u
X10 S a_140_25# VSS & Metric 1.00 nmos_6p0 w=1.32u l=0.6u
X11 S a_140_25# VDD w_n86_453# pmos_6p0 w=1.83u l=0.5u
X12 VDD CI a_1760_573# w_n86_453# pmos_6p0 w=1.39u l=0.5u
X13 CO a_1640_129# VDD w_n86_453# pmos_6p0 w=1.83u l=0.5u
X14 a_2592_173# A VSS & Metric 1.00 nmos_6p0 w=0.8u l=0.6u
X15 VSS a_1640_129# CO & Metric 1.00 nmos_6p0 w=1.32u l=0.6u
X16 a_1368_173# B a_1200_173# & Metric 1.00 nmos_6p0 w=0.8u l=0.6u
X17 VSS A a_1760_173# & Metric 1.00 nmos_6p0 w=0.8u l=0.6u
X18 VSS a_1640_129# CO & Metric 1.00 nmos_6p0 w=1.32u l=0.6u
X19 VDD a_140_25# S w_n86_453# pmos_6p0 w=1.83u l=0.5u
X20 a_140_25# CI a_1368_573# w_n86_453# pmos_6p0 w=1.39u l=0.5u
X21 a_1760_573# B VDD w_n86_453# pmos_6p0 w=1.39u l=0.5u
X22 a_1640_129# CI a_2612_573# w_n86_453# pmos_6p0 w=1.39u l=0.5u
X23 VSS B a_2592_173# & Metric 1.00 nmos_6p0 w=0.8u l=0.6u
X24 a_1200_173# A VSS & Metric 1.00 nmos_6p0 w=0.8u l=0.6u
X25 VSS CI a_1760_173# & Metric 1.00 nmos_6p0 w=0.8u l=0.6u
X26 VDD a_140_25# S w_n86_453# pmos_6p0 w=1.83u l=0.5u
X27 a_1368_573# B a_1200_573# w_n86_453# pmos_6p0 w=1.39u l=0.5u
X28 VDD A a_1760_573# w_n86_453# pmos_6p0 w=1.39u l=0.5u
X29 S a_140_25# VSS & Metric 1.00 nmos_6p0 w=1.32u l=0.6u
X30 a_1760_173# B VSS & Metric 1.00 nmos_6p0 w=0.8u l=0.6u
X31 a_1640_129# CI a_2592_173# & Metric 1.00 nmos_6p0 w=0.8u l=0.6u
X32 VDD a_1640_129# CO w_n86_453# pmos_6p0 w=1.83u l=0.5u
X33 a_1760_173# a_1640_129# a_140_25# & Metric 1.00 nmos_6p0 w=0.8u l=0.6u
X34 VDD A a_3452_573# w_n86_453# pmos_6p0 w=1.39u l=0.5u
X35 VDD a_1640_129# CO w_n86_453# pmos_6p0 w=1.83u l=0.5u
X36 VSS a_140_25# S & Metric 1.00 nmos_6p0 w=1.32u l=0.6u
X37 CO a_1640_129# VSS & Metric 1.00 nmos_6p0 w=1.32u l=0.6u
X38 S a_140_25# VDD w_n86_453# pmos_6p0 w=1.83u l=0.5u
X39 VSS a_140_25# S & Metric 1.00 nmos_6p0 w=1.32u l=0.6u
.ends



******* EOF

* NGSPICE file created from gf180mcu_fd_sc_mcu9t5v0__addf_4.ext - technology: gf180mcuA



******* EOF

* NGSPICE file created from gf180mcu_fd_sc_mcu9t5v0__addh_1.ext - technology: gf180mcuA

.subckt gf180mcu_fd_sc_mcu9t5v0__addh_1 A B CO S VDD VSS
X0 a_1052_691# B VDD w_n86_453# pmos_6p0 w=0.915u l=0.5u
X1 a_844_201# A a_1052_201# & Metric 1.00 nmos_6p0 w=0.66u l=0.6u
X2 a_1052_201# A a_1052_691# w_n86_453# pmos_6p0 w=0.915u l=0.5u
X3 a_124_25# B a_516_201# & Metric 1.00 nmos_6p0 w=0.66u l=0.6u
X4 S a_1052_201# VSS & Metric 1.00 nmos_6p0 w=1.32u l=0.6u
X5 a_516_201# A VSS & Metric 1.00 nmos_6p0 w=0.66u l=0.6u
X6 a_124_25# A VDD w_n86_453# pmos_6p0 w=0.915u l=0.5u
X7 a_1052_201# B a_844_201# & Metric 1.00 nmos_6p0 w=0.66u l=0.6u
X8 VDD a_124_25# a_1052_201# w_n86_453# pmos_6p0 w=0.915u l=0.5u
X9 S a_1052_201# VDD w_n86_453# pmos_6p0 w=1.83u l=0.5u
X10 VDD a_124_25# CO w_n86_453# pmos_6p0 w=1.83u l=0.5u
X11 VSS a_124_25# a_844_201# & Metric 1.00 nmos_6p0 w=0.66u l=0.6u
X12 VSS a_124_25# CO & Metric 1.00 nmos_6p0 w=1.32u l=0.6u
X13 VDD B a_124_25# w_n86_453# pmos_6p0 w=0.915u l=0.5u
.ends



******* EOF

* NGSPICE file created from gf180mcu_fd_sc_mcu9t5v0__addh_1.ext - technology: gf180mcuA



******* EOF

* NGSPICE file created from gf180mcu_fd_sc_mcu9t5v0__addh_2.ext - technology: gf180mcuA

.subckt gf180mcu_fd_sc_mcu9t5v0__addh_2 A B CO S VDD VSS
X0 a_128_25# A VDD w_n86_453# pmos_6p0 w=1.83u l=0.5u
X1 VSS a_1248_69# S & Metric 1.00 nmos_6p0 w=1.32u l=0.6u
X2 VDD B a_128_25# w_n86_453# pmos_6p0 w=1.83u l=0.5u
X3 a_128_25# B a_696_69# & Metric 1.00 nmos_6p0 w=1.32u l=0.6u
X4 VDD a_128_25# a_1248_69# w_n86_453# pmos_6p0 w=1.83u l=0.5u
X5 VDD a_128_25# CO w_n86_453# pmos_6p0 w=1.83u l=0.5u
X6 a_1040_69# A a_1248_69# & Metric 1.00 nmos_6p0 w=1.32u l=0.6u
X7 a_1248_69# A a_1248_573# w_n86_453# pmos_6p0 w=1.83u l=0.5u
X8 VDD a_1248_69# S w_n86_453# pmos_6p0 w=1.83u l=0.5u
X9 a_1248_573# B VDD w_n86_453# pmos_6p0 w=1.83u l=0.5u
X10 S a_1248_69# VSS & Metric 1.00 nmos_6p0 w=1.32u l=0.6u
X11 a_696_69# A VSS & Metric 1.00 nmos_6p0 w=1.32u l=0.6u
X12 CO a_128_25# VDD w_n86_453# pmos_6p0 w=1.83u l=0.5u
X13 CO a_128_25# VSS & Metric 1.00 nmos_6p0 w=1.32u l=0.6u
X14 S a_1248_69# VDD w_n86_453# pmos_6p0 w=1.83u l=0.5u
X15 VSS a_128_25# CO & Metric 1.00 nmos_6p0 w=1.32u l=0.6u
X16 VSS a_128_25# a_1040_69# & Metric 1.00 nmos_6p0 w=1.32u l=0.6u
X17 a_1248_69# B a_1040_69# & Metric 1.00 nmos_6p0 w=1.32u l=0.6u
.ends



******* EOF

* NGSPICE file created from gf180mcu_fd_sc_mcu9t5v0__addh_2.ext - technology: gf180mcuA



******* EOF

* NGSPICE file created from gf180mcu_fd_sc_mcu9t5v0__addh_4.ext - technology: gf180mcuA

.subckt gf180mcu_fd_sc_mcu9t5v0__addh_4 A B CO S VDD VSS
X0 VDD B a_234_573# w_n86_453# pmos_6p0 w=1.83u l=0.5u
X1 a_1106_573# A a_1778_573# w_n86_453# pmos_6p0 w=1.83u l=0.5u
X2 VSS A a_672_68# & Metric 1.00 nmos_6p0 w=1.32u l=0.6u
X3 VDD a_234_573# CO w_n86_453# pmos_6p0 w=1.83u l=0.5u
X4 a_672_68# B a_234_573# & Metric 1.00 nmos_6p0 w=1.32u l=0.6u
X5 a_1106_573# A a_1116_156# & Metric 1.00 nmos_6p0 w=0.88u l=0.6u
X6 a_1116_156# a_234_573# VSS & Metric 1.00 nmos_6p0 w=0.88u l=0.6u
X7 a_1778_573# B VDD w_n86_453# pmos_6p0 w=1.83u l=0.5u
X8 a_1320_573# A a_1106_573# w_n86_453# pmos_6p0 w=1.83u l=0.5u
X9 CO a_234_573# VDD w_n86_453# pmos_6p0 w=1.83u l=0.5u
X10 VDD a_234_573# CO w_n86_453# pmos_6p0 w=1.83u l=0.5u
X11 a_1106_573# B a_1116_156# & Metric 1.00 nmos_6p0 w=0.88u l=0.6u
X12 VDD a_234_573# a_1106_573# w_n86_453# pmos_6p0 w=1.83u l=0.5u
X13 a_1106_573# a_234_573# VDD w_n86_453# pmos_6p0 w=1.83u l=0.5u
X14 VDD a_1106_573# S w_n86_453# pmos_6p0 w=1.83u l=0.5u
X15 a_244_68# A VSS & Metric 1.00 nmos_6p0 w=1.32u l=0.6u
X16 VSS a_234_573# a_1116_156# & Metric 1.00 nmos_6p0 w=0.88u l=0.6u
X17 VSS a_1106_573# S & Metric 1.00 nmos_6p0 w=1.32u l=0.6u
X18 VDD B a_1320_573# w_n86_453# pmos_6p0 w=1.83u l=0.5u
X19 VSS a_1106_573# S & Metric 1.00 nmos_6p0 w=1.32u l=0.6u
X20 CO a_234_573# VDD w_n86_453# pmos_6p0 w=1.83u l=0.5u
X21 a_1116_156# B a_1106_573# & Metric 1.00 nmos_6p0 w=0.88u l=0.6u
X22 VSS a_234_573# CO & Metric 1.00 nmos_6p0 w=1.32u l=0.6u
X23 CO a_234_573# VSS & Metric 1.00 nmos_6p0 w=1.32u l=0.6u
X24 a_234_573# B a_244_68# & Metric 1.00 nmos_6p0 w=1.32u l=0.6u
X25 CO a_234_573# VSS & Metric 1.00 nmos_6p0 w=1.32u l=0.6u
X26 S a_1106_573# VSS & Metric 1.00 nmos_6p0 w=1.32u l=0.6u
X27 a_234_573# B VDD w_n86_453# pmos_6p0 w=1.83u l=0.5u
X28 S a_1106_573# VDD w_n86_453# pmos_6p0 w=1.83u l=0.5u
X29 VDD a_1106_573# S w_n86_453# pmos_6p0 w=1.83u l=0.5u
X30 a_1116_156# A a_1106_573# & Metric 1.00 nmos_6p0 w=0.88u l=0.6u
X31 S a_1106_573# VDD w_n86_453# pmos_6p0 w=1.83u l=0.5u
X32 S a_1106_573# VSS & Metric 1.00 nmos_6p0 w=1.32u l=0.6u
X33 a_234_573# A VDD w_n86_453# pmos_6p0 w=1.83u l=0.5u
X34 VDD A a_234_573# w_n86_453# pmos_6p0 w=1.83u l=0.5u
X35 VSS a_234_573# CO & Metric 1.00 nmos_6p0 w=1.32u l=0.6u
.ends



******* EOF

* NGSPICE file created from gf180mcu_fd_sc_mcu9t5v0__addh_4.ext - technology: gf180mcuA



******* EOF

* NGSPICE file created from gf180mcu_fd_sc_mcu9t5v0__and2_1.ext - technology: gf180mcuA

.subckt gf180mcu_fd_sc_mcu9t5v0__and2_1 A1 A2 VDD VSS Z
X0 Z a_36_201# VDD w_n86_453# pmos_6p0 w=1.83u l=0.5u
X1 VSS A2 a_244_201# & Metric 1.00 nmos_6p0 w=0.66u l=0.6u
X2 a_36_201# A1 VDD w_n86_453# pmos_6p0 w=0.82u l=0.5u
X3 VDD A2 a_36_201# w_n86_453# pmos_6p0 w=0.82u l=0.5u
X4 a_244_201# A1 a_36_201# & Metric 1.00 nmos_6p0 w=0.66u l=0.6u
X5 Z a_36_201# VSS & Metric 1.00 nmos_6p0 w=1.32u l=0.6u
.ends



******* EOF

* NGSPICE file created from gf180mcu_fd_sc_mcu9t5v0__and2_1.ext - technology: gf180mcuA



******* EOF

* NGSPICE file created from gf180mcu_fd_sc_mcu9t5v0__and2_2.ext - technology: gf180mcuA

.subckt gf180mcu_fd_sc_mcu9t5v0__and2_2 A1 A2 VDD VSS Z
X0 VSS A2 a_247_69# & Metric 1.00 nmos_6p0 w=1.32u l=0.6u
X1 Z a_39_69# VDD w_n86_453# pmos_6p0 w=1.83u l=0.5u
X2 VSS a_39_69# Z & Metric 1.00 nmos_6p0 w=1.32u l=0.6u
X3 VDD a_39_69# Z w_n86_453# pmos_6p0 w=1.83u l=0.5u
X4 a_247_69# A1 a_39_69# & Metric 1.00 nmos_6p0 w=1.32u l=0.6u
X5 a_39_69# A1 VDD w_n86_453# pmos_6p0 w=1.64u l=0.5u
X6 VDD A2 a_39_69# w_n86_453# pmos_6p0 w=1.64u l=0.5u
X7 Z a_39_69# VSS & Metric 1.00 nmos_6p0 w=1.32u l=0.6u
.ends



******* EOF

* NGSPICE file created from gf180mcu_fd_sc_mcu9t5v0__and2_2.ext - technology: gf180mcuA



******* EOF

* NGSPICE file created from gf180mcu_fd_sc_mcu9t5v0__and2_4.ext - technology: gf180mcuA

.subckt gf180mcu_fd_sc_mcu9t5v0__and2_4 A1 A2 VDD VSS Z
X0 a_224_611# A2 VDD w_n86_453# pmos_6p0 w=1.64u l=0.5u
X1 VDD a_224_611# Z w_n86_453# pmos_6p0 w=1.83u l=0.5u
X2 VSS A2 a_659_69# & Metric 1.00 nmos_6p0 w=1.32u l=0.6u
X3 Z a_224_611# VDD w_n86_453# pmos_6p0 w=1.83u l=0.5u
X4 VDD A1 a_224_611# w_n86_453# pmos_6p0 w=1.64u l=0.5u
X5 a_224_611# A1 VDD w_n86_453# pmos_6p0 w=1.64u l=0.5u
X6 VDD a_224_611# Z w_n86_453# pmos_6p0 w=1.83u l=0.5u
X7 Z a_224_611# VSS & Metric 1.00 nmos_6p0 w=1.32u l=0.6u
X8 VDD A2 a_224_611# w_n86_453# pmos_6p0 w=1.64u l=0.5u
X9 Z a_224_611# VSS & Metric 1.00 nmos_6p0 w=1.32u l=0.6u
X10 VSS a_224_611# Z & Metric 1.00 nmos_6p0 w=1.32u l=0.6u
X11 a_224_611# A1 a_244_69# & Metric 1.00 nmos_6p0 w=1.32u l=0.6u
X12 a_659_69# A1 a_224_611# & Metric 1.00 nmos_6p0 w=1.32u l=0.6u
X13 a_244_69# A2 VSS & Metric 1.00 nmos_6p0 w=1.32u l=0.6u
X14 VSS a_224_611# Z & Metric 1.00 nmos_6p0 w=1.32u l=0.6u
X15 Z a_224_611# VDD w_n86_453# pmos_6p0 w=1.83u l=0.5u
.ends



******* EOF

* NGSPICE file created from gf180mcu_fd_sc_mcu9t5v0__and2_4.ext - technology: gf180mcuA



******* EOF

* NGSPICE file created from gf180mcu_fd_sc_mcu9t5v0__and3_1.ext - technology: gf180mcuA

.subckt gf180mcu_fd_sc_mcu9t5v0__and3_1 A1 A2 A3 VDD VSS Z
X0 a_36_201# A2 VDD w_n86_453# pmos_6p0 w=0.73u l=0.5u
X1 VDD A3 a_36_201# w_n86_453# pmos_6p0 w=0.73u l=0.5u
X2 a_428_201# A2 a_244_201# & Metric 1.00 nmos_6p0 w=0.66u l=0.6u
X3 VSS A3 a_428_201# & Metric 1.00 nmos_6p0 w=0.66u l=0.6u
X4 a_244_201# A1 a_36_201# & Metric 1.00 nmos_6p0 w=0.66u l=0.6u
X5 Z a_36_201# VDD w_n86_453# pmos_6p0 w=1.83u l=0.5u
X6 Z a_36_201# VSS & Metric 1.00 nmos_6p0 w=1.32u l=0.6u
X7 VDD A1 a_36_201# w_n86_453# pmos_6p0 w=0.73u l=0.5u
.ends



******* EOF

* NGSPICE file created from gf180mcu_fd_sc_mcu9t5v0__and3_1.ext - technology: gf180mcuA



******* EOF

* NGSPICE file created from gf180mcu_fd_sc_mcu9t5v0__and3_2.ext - technology: gf180mcuA

.subckt gf180mcu_fd_sc_mcu9t5v0__and3_2 A1 A2 A3 VDD VSS Z
X0 VDD A1 a_47_69# w_n86_453# pmos_6p0 w=1.46u l=0.5u
X1 a_47_69# A2 VDD w_n86_453# pmos_6p0 w=1.46u l=0.5u
X2 VDD A3 a_47_69# w_n86_453# pmos_6p0 w=1.46u l=0.5u
X3 Z a_47_69# VSS & Metric 1.00 nmos_6p0 w=1.32u l=0.6u
X4 Z a_47_69# VDD w_n86_453# pmos_6p0 w=1.83u l=0.5u
X5 VSS a_47_69# Z & Metric 1.00 nmos_6p0 w=1.32u l=0.6u
X6 VDD a_47_69# Z w_n86_453# pmos_6p0 w=1.83u l=0.5u
X7 VSS A3 a_439_69# & Metric 1.00 nmos_6p0 w=1.32u l=0.6u
X8 a_255_69# A1 a_47_69# & Metric 1.00 nmos_6p0 w=1.32u l=0.6u
X9 a_439_69# A2 a_255_69# & Metric 1.00 nmos_6p0 w=1.32u l=0.6u
.ends



******* EOF

* NGSPICE file created from gf180mcu_fd_sc_mcu9t5v0__and3_2.ext - technology: gf180mcuA



******* EOF

* NGSPICE file created from gf180mcu_fd_sc_mcu9t5v0__and3_4.ext - technology: gf180mcuA

.subckt gf180mcu_fd_sc_mcu9t5v0__and3_4 A1 A2 A3 VDD VSS Z
X0 VSS a_224_573# Z & Metric 1.00 nmos_6p0 w=1.32u l=0.6u
X1 a_224_573# A3 VDD w_n86_453# pmos_6p0 w=1.46u l=0.5u
X2 VSS a_224_573# Z & Metric 1.00 nmos_6p0 w=1.32u l=0.6u
X3 VDD A2 a_224_573# w_n86_453# pmos_6p0 w=1.46u l=0.5u
X4 a_260_69# A3 VSS & Metric 1.00 nmos_6p0 w=1.32u l=0.6u
X5 VSS A3 a_1040_69# & Metric 1.00 nmos_6p0 w=1.32u l=0.6u
X6 a_224_573# A1 VDD w_n86_453# pmos_6p0 w=1.46u l=0.5u
X7 a_856_69# A1 a_224_573# & Metric 1.00 nmos_6p0 w=1.32u l=0.6u
X8 Z a_224_573# VSS & Metric 1.00 nmos_6p0 w=1.32u l=0.6u
X9 VDD A1 a_224_573# w_n86_453# pmos_6p0 w=1.46u l=0.5u
X10 Z a_224_573# VDD w_n86_453# pmos_6p0 w=1.83u l=0.5u
X11 Z a_224_573# VSS & Metric 1.00 nmos_6p0 w=1.32u l=0.6u
X12 a_224_573# A2 VDD w_n86_453# pmos_6p0 w=1.46u l=0.5u
X13 VDD a_224_573# Z w_n86_453# pmos_6p0 w=1.83u l=0.5u
X14 a_224_573# A1 a_428_69# & Metric 1.00 nmos_6p0 w=1.32u l=0.6u
X15 VDD A3 a_224_573# w_n86_453# pmos_6p0 w=1.46u l=0.5u
X16 a_428_69# A2 a_260_69# & Metric 1.00 nmos_6p0 w=1.32u l=0.6u
X17 VDD a_224_573# Z w_n86_453# pmos_6p0 w=1.83u l=0.5u
X18 a_1040_69# A2 a_856_69# & Metric 1.00 nmos_6p0 w=1.32u l=0.6u
X19 Z a_224_573# VDD w_n86_453# pmos_6p0 w=1.83u l=0.5u
.ends



******* EOF

* NGSPICE file created from gf180mcu_fd_sc_mcu9t5v0__and3_4.ext - technology: gf180mcuA



******* EOF

* NGSPICE file created from gf180mcu_fd_sc_mcu9t5v0__and4_1.ext - technology: gf180mcuA

.subckt gf180mcu_fd_sc_mcu9t5v0__and4_1 A1 A2 A3 A4 VDD VSS Z
X0 a_440_201# A2 a_256_201# & Metric 1.00 nmos_6p0 w=0.66u l=0.6u
X1 a_48_201# A1 VDD w_n86_453# pmos_6p0 w=0.64u l=0.5u
X2 VDD A2 a_48_201# w_n86_453# pmos_6p0 w=0.64u l=0.5u
X3 a_644_201# A3 a_440_201# & Metric 1.00 nmos_6p0 w=0.66u l=0.6u
X4 a_48_201# A3 VDD w_n86_453# pmos_6p0 w=0.64u l=0.5u
X5 VSS A4 a_644_201# & Metric 1.00 nmos_6p0 w=0.66u l=0.6u
X6 VDD A4 a_48_201# w_n86_453# pmos_6p0 w=0.64u l=0.5u
X7 a_256_201# A1 a_48_201# & Metric 1.00 nmos_6p0 w=0.66u l=0.6u
X8 Z a_48_201# VSS & Metric 1.00 nmos_6p0 w=1.32u l=0.6u
X9 Z a_48_201# VDD w_n86_453# pmos_6p0 w=1.83u l=0.5u
.ends



******* EOF

* NGSPICE file created from gf180mcu_fd_sc_mcu9t5v0__and4_1.ext - technology: gf180mcuA



******* EOF

* NGSPICE file created from gf180mcu_fd_sc_mcu9t5v0__and4_2.ext - technology: gf180mcuA

.subckt gf180mcu_fd_sc_mcu9t5v0__and4_2 A1 A2 A3 A4 VDD VSS Z
X0 VSS A4 a_643_69# & Metric 1.00 nmos_6p0 w=1.32u l=0.6u
X1 Z a_47_69# VSS & Metric 1.00 nmos_6p0 w=1.32u l=0.6u
X2 a_47_69# A1 VDD w_n86_453# pmos_6p0 w=1.28u l=0.5u
X3 VDD A2 a_47_69# w_n86_453# pmos_6p0 w=1.28u l=0.5u
X4 a_47_69# A3 VDD w_n86_453# pmos_6p0 w=1.28u l=0.5u
X5 VDD A4 a_47_69# w_n86_453# pmos_6p0 w=1.28u l=0.5u
X6 Z a_47_69# VDD w_n86_453# pmos_6p0 w=1.83u l=0.5u
X7 a_643_69# A3 a_439_69# & Metric 1.00 nmos_6p0 w=1.32u l=0.6u
X8 VDD a_47_69# Z w_n86_453# pmos_6p0 w=1.83u l=0.5u
X9 a_255_69# A1 a_47_69# & Metric 1.00 nmos_6p0 w=1.32u l=0.6u
X10 a_439_69# A2 a_255_69# & Metric 1.00 nmos_6p0 w=1.32u l=0.6u
X11 VSS a_47_69# Z & Metric 1.00 nmos_6p0 w=1.32u l=0.6u
.ends



******* EOF

* NGSPICE file created from gf180mcu_fd_sc_mcu9t5v0__and4_2.ext - technology: gf180mcuA



******* EOF

* NGSPICE file created from gf180mcu_fd_sc_mcu9t5v0__and4_4.ext - technology: gf180mcuA

.subckt gf180mcu_fd_sc_mcu9t5v0__and4_4 A1 A2 A3 A4 VDD VSS Z
X0 VDD A1 a_227_573# w_n86_453# pmos_6p0 w=1.28u l=0.5u
X1 a_1247_69# A2 a_1063_69# & Metric 1.00 nmos_6p0 w=1.32u l=0.6u
X2 Z a_227_573# VDD w_n86_453# pmos_6p0 w=1.83u l=0.5u
X3 a_227_573# A1 VDD w_n86_453# pmos_6p0 w=1.28u l=0.5u
X4 Z a_227_573# VSS & Metric 1.00 nmos_6p0 w=1.32u l=0.6u
X5 a_1063_69# A1 a_227_573# & Metric 1.00 nmos_6p0 w=1.32u l=0.6u
X6 VDD a_227_573# Z w_n86_453# pmos_6p0 w=1.83u l=0.5u
X7 VSS a_227_573# Z & Metric 1.00 nmos_6p0 w=1.32u l=0.6u
X8 a_431_69# A3 a_247_69# & Metric 1.00 nmos_6p0 w=1.32u l=0.6u
X9 VSS A4 a_1451_69# & Metric 1.00 nmos_6p0 w=1.32u l=0.6u
X10 VDD A2 a_227_573# w_n86_453# pmos_6p0 w=1.28u l=0.5u
X11 a_227_573# A3 VDD w_n86_453# pmos_6p0 w=1.28u l=0.5u
X12 VSS a_227_573# Z & Metric 1.00 nmos_6p0 w=1.32u l=0.6u
X13 VDD A4 a_227_573# w_n86_453# pmos_6p0 w=1.28u l=0.5u
X14 a_635_69# A2 a_431_69# & Metric 1.00 nmos_6p0 w=1.32u l=0.6u
X15 a_247_69# A4 VSS & Metric 1.00 nmos_6p0 w=1.32u l=0.6u
X16 a_227_573# A4 VDD w_n86_453# pmos_6p0 w=1.28u l=0.5u
X17 VDD A3 a_227_573# w_n86_453# pmos_6p0 w=1.28u l=0.5u
X18 Z a_227_573# VDD w_n86_453# pmos_6p0 w=1.83u l=0.5u
X19 a_227_573# A2 VDD w_n86_453# pmos_6p0 w=1.28u l=0.5u
X20 a_227_573# A1 a_635_69# & Metric 1.00 nmos_6p0 w=1.32u l=0.6u
X21 a_1451_69# A3 a_1247_69# & Metric 1.00 nmos_6p0 w=1.32u l=0.6u
X22 VDD a_227_573# Z w_n86_453# pmos_6p0 w=1.83u l=0.5u
X23 Z a_227_573# VSS & Metric 1.00 nmos_6p0 w=1.32u l=0.6u
.ends



******* EOF

* NGSPICE file created from gf180mcu_fd_sc_mcu9t5v0__and4_4.ext - technology: gf180mcuA



******* EOF

* NGSPICE file created from gf180mcu_fd_sc_mcu9t5v0__antenna.ext - technology: gf180mcuA

.subckt gf180mcu_fd_sc_mcu9t5v0__antenna I VDD VSS
D0 & Metric 1.00 I np_6p0 pj=1.85u area=0.2034p
D1 I w_n86_453# pn_6p0 pj=1.85u area=0.2034p
.ends



******* EOF

* NGSPICE file created from gf180mcu_fd_sc_mcu9t5v0__antenna.ext - technology: gf180mcuA



******* EOF

* NGSPICE file created from gf180mcu_fd_sc_mcu9t5v0__aoi21_1.ext - technology: gf180mcuA

.subckt gf180mcu_fd_sc_mcu9t5v0__aoi21_1 A1 A2 B VDD VSS ZN
X0 ZN A2 a_36_573# w_n86_453# pmos_6p0 w=1.83u l=0.5u
X1 a_36_573# A1 ZN w_n86_453# pmos_6p0 w=1.83u l=0.5u
X2 VDD B a_36_573# w_n86_453# pmos_6p0 w=1.83u l=0.5u
X3 ZN A1 a_244_69# & Metric 1.00 nmos_6p0 w=1.32u l=0.6u
X4 a_244_69# A2 VSS & Metric 1.00 nmos_6p0 w=1.32u l=0.6u
X5 VSS B ZN & Metric 1.00 nmos_6p0 w=0.92u l=0.6u
.ends



******* EOF

* NGSPICE file created from gf180mcu_fd_sc_mcu9t5v0__aoi21_1.ext - technology: gf180mcuA



******* EOF

* NGSPICE file created from gf180mcu_fd_sc_mcu9t5v0__aoi21_2.ext - technology: gf180mcuA

.subckt gf180mcu_fd_sc_mcu9t5v0__aoi21_2 A1 A2 B VDD VSS ZN
X0 a_49_573# B VDD w_n86_453# pmos_6p0 w=1.83u l=0.5u
X1 ZN A2 a_49_573# w_n86_453# pmos_6p0 w=1.83u l=0.5u
X2 VSS B ZN & Metric 1.00 nmos_6p0 w=0.92u l=0.6u
X3 ZN A1 a_741_69# & Metric 1.00 nmos_6p0 w=1.32u l=0.6u
X4 a_1133_69# A1 ZN & Metric 1.00 nmos_6p0 w=1.32u l=0.6u
X5 VSS A2 a_1133_69# & Metric 1.00 nmos_6p0 w=1.32u l=0.6u
X6 a_49_573# A1 ZN w_n86_453# pmos_6p0 w=1.83u l=0.5u
X7 VDD B a_49_573# w_n86_453# pmos_6p0 w=1.83u l=0.5u
X8 ZN A1 a_49_573# w_n86_453# pmos_6p0 w=1.83u l=0.5u
X9 a_741_69# A2 VSS & Metric 1.00 nmos_6p0 w=1.32u l=0.6u
X10 ZN B VSS & Metric 1.00 nmos_6p0 w=0.92u l=0.6u
X11 a_49_573# A2 ZN w_n86_453# pmos_6p0 w=1.83u l=0.5u
.ends



******* EOF

* NGSPICE file created from gf180mcu_fd_sc_mcu9t5v0__aoi21_2.ext - technology: gf180mcuA



******* EOF

* NGSPICE file created from gf180mcu_fd_sc_mcu9t5v0__aoi21_4.ext - technology: gf180mcuA

.subckt gf180mcu_fd_sc_mcu9t5v0__aoi21_4 A1 A2 B VDD VSS ZN
X0 a_288_68# A2 VSS & Metric 1.00 nmos_6p0 w=1.32u l=0.6u
X1 a_1072_68# A2 VSS & Metric 1.00 nmos_6p0 w=1.32u l=0.6u
X2 a_76_574# A1 ZN w_n86_453# pmos_6p0 w=1.83u l=0.5u
X3 ZN A1 a_288_68# & Metric 1.00 nmos_6p0 w=1.32u l=0.6u
X4 ZN A1 a_76_574# w_n86_453# pmos_6p0 w=1.83u l=0.5u
X5 a_76_574# B VDD w_n86_453# pmos_6p0 w=1.83u l=0.5u
X6 a_76_574# A2 ZN w_n86_453# pmos_6p0 w=1.83u l=0.5u
X7 a_680_68# A1 ZN & Metric 1.00 nmos_6p0 w=1.32u l=0.6u
X8 VSS B ZN & Metric 1.00 nmos_6p0 w=0.92u l=0.6u
X9 VDD B a_76_574# w_n86_453# pmos_6p0 w=1.83u l=0.5u
X10 VDD B a_76_574# w_n86_453# pmos_6p0 w=1.83u l=0.5u
X11 a_76_574# B VDD w_n86_453# pmos_6p0 w=1.83u l=0.5u
X12 VSS B ZN & Metric 1.00 nmos_6p0 w=0.92u l=0.6u
X13 ZN A2 a_76_574# w_n86_453# pmos_6p0 w=1.83u l=0.5u
X14 a_76_574# A1 ZN w_n86_453# pmos_6p0 w=1.83u l=0.5u
X15 a_1464_68# A1 ZN & Metric 1.00 nmos_6p0 w=1.32u l=0.6u
X16 ZN B VSS & Metric 1.00 nmos_6p0 w=0.92u l=0.6u
X17 ZN A1 a_76_574# w_n86_453# pmos_6p0 w=1.83u l=0.5u
X18 VSS A2 a_1464_68# & Metric 1.00 nmos_6p0 w=1.32u l=0.6u
X19 VSS A2 a_680_68# & Metric 1.00 nmos_6p0 w=1.32u l=0.6u
X20 a_76_574# A2 ZN w_n86_453# pmos_6p0 w=1.83u l=0.5u
X21 ZN B VSS & Metric 1.00 nmos_6p0 w=0.92u l=0.6u
X22 ZN A2 a_76_574# w_n86_453# pmos_6p0 w=1.83u l=0.5u
X23 ZN A1 a_1072_68# & Metric 1.00 nmos_6p0 w=1.32u l=0.6u
.ends



******* EOF

* NGSPICE file created from gf180mcu_fd_sc_mcu9t5v0__aoi21_4.ext - technology: gf180mcuA



******* EOF

* NGSPICE file created from gf180mcu_fd_sc_mcu9t5v0__aoi22_1.ext - technology: gf180mcuA

.subckt gf180mcu_fd_sc_mcu9t5v0__aoi22_1 A1 A2 B1 B2 VDD VSS ZN
X0 a_665_69# A1 ZN & Metric 1.00 nmos_6p0 w=1.32u l=0.6u
X1 VSS A2 a_665_69# & Metric 1.00 nmos_6p0 w=1.32u l=0.6u
X2 ZN B1 a_257_69# & Metric 1.00 nmos_6p0 w=1.32u l=0.6u
X3 VDD B2 a_49_573# w_n86_453# pmos_6p0 w=1.83u l=0.5u
X4 a_49_573# B1 VDD w_n86_453# pmos_6p0 w=1.83u l=0.5u
X5 ZN A1 a_49_573# w_n86_453# pmos_6p0 w=1.83u l=0.5u
X6 a_49_573# A2 ZN w_n86_453# pmos_6p0 w=1.83u l=0.5u
X7 a_257_69# B2 VSS & Metric 1.00 nmos_6p0 w=1.32u l=0.6u
.ends



******* EOF

* NGSPICE file created from gf180mcu_fd_sc_mcu9t5v0__aoi22_1.ext - technology: gf180mcuA



******* EOF

* NGSPICE file created from gf180mcu_fd_sc_mcu9t5v0__aoi22_2.ext - technology: gf180mcuA

.subckt gf180mcu_fd_sc_mcu9t5v0__aoi22_2 A1 A2 B1 B2 VDD VSS ZN
X0 VSS B2 a_659_69# & Metric 1.00 nmos_6p0 w=1.32u l=0.6u
X1 ZN A1 a_1060_69# & Metric 1.00 nmos_6p0 w=1.32u l=0.6u
X2 VDD B2 a_36_573# w_n86_453# pmos_6p0 w=1.83u l=0.5u
X3 a_1060_69# A2 VSS & Metric 1.00 nmos_6p0 w=1.32u l=0.6u
X4 a_36_573# B1 VDD w_n86_453# pmos_6p0 w=1.83u l=0.5u
X5 VDD B1 a_36_573# w_n86_453# pmos_6p0 w=1.83u l=0.5u
X6 VSS A2 a_1468_69# & Metric 1.00 nmos_6p0 w=1.32u l=0.6u
X7 a_36_573# B2 VDD w_n86_453# pmos_6p0 w=1.83u l=0.5u
X8 ZN A2 a_36_573# w_n86_453# pmos_6p0 w=1.83u l=0.5u
X9 a_36_573# A1 ZN w_n86_453# pmos_6p0 w=1.83u l=0.5u
X10 ZN B1 a_244_69# & Metric 1.00 nmos_6p0 w=1.32u l=0.6u
X11 a_659_69# B1 ZN & Metric 1.00 nmos_6p0 w=1.32u l=0.6u
X12 a_244_69# B2 VSS & Metric 1.00 nmos_6p0 w=1.32u l=0.6u
X13 a_1468_69# A1 ZN & Metric 1.00 nmos_6p0 w=1.32u l=0.6u
X14 ZN A1 a_36_573# w_n86_453# pmos_6p0 w=1.83u l=0.5u
X15 a_36_573# A2 ZN w_n86_453# pmos_6p0 w=1.83u l=0.5u
.ends



******* EOF

* NGSPICE file created from gf180mcu_fd_sc_mcu9t5v0__aoi22_2.ext - technology: gf180mcuA



******* EOF

* NGSPICE file created from gf180mcu_fd_sc_mcu9t5v0__aoi22_4.ext - technology: gf180mcuA

.subckt gf180mcu_fd_sc_mcu9t5v0__aoi22_4 A1 A2 B1 B2 VDD VSS ZN
X0 a_652_69# B1 ZN & Metric 1.00 nmos_6p0 w=1.32u l=0.6u
X1 VSS B2 a_652_69# & Metric 1.00 nmos_6p0 w=1.32u l=0.6u
X2 ZN A1 a_1924_69# & Metric 1.00 nmos_6p0 w=1.32u l=0.6u
X3 ZN B1 a_1060_69# & Metric 1.00 nmos_6p0 w=1.32u l=0.6u
X4 VDD B2 a_36_573# w_n86_453# pmos_6p0 w=1.83u l=0.5u
X5 VSS A2 a_3148_69# & Metric 1.00 nmos_6p0 w=1.32u l=0.6u
X6 a_1060_69# B2 VSS & Metric 1.00 nmos_6p0 w=1.32u l=0.6u
X7 a_36_573# B1 VDD w_n86_453# pmos_6p0 w=1.83u l=0.5u
X8 VDD B1 a_36_573# w_n86_453# pmos_6p0 w=1.83u l=0.5u
X9 VSS B2 a_1468_69# & Metric 1.00 nmos_6p0 w=1.32u l=0.6u
X10 a_2332_69# A1 ZN & Metric 1.00 nmos_6p0 w=1.32u l=0.6u
X11 a_36_573# B2 VDD w_n86_453# pmos_6p0 w=1.83u l=0.5u
X12 VSS A2 a_2332_69# & Metric 1.00 nmos_6p0 w=1.32u l=0.6u
X13 VDD B2 a_36_573# w_n86_453# pmos_6p0 w=1.83u l=0.5u
X14 a_36_573# A1 ZN w_n86_453# pmos_6p0 w=1.83u l=0.5u
X15 ZN A1 a_36_573# w_n86_453# pmos_6p0 w=1.83u l=0.5u
X16 a_3148_69# A1 ZN & Metric 1.00 nmos_6p0 w=1.32u l=0.6u
X17 ZN A2 a_36_573# w_n86_453# pmos_6p0 w=1.83u l=0.5u
X18 ZN A1 a_2740_69# & Metric 1.00 nmos_6p0 w=1.32u l=0.6u
X19 a_2740_69# A2 VSS & Metric 1.00 nmos_6p0 w=1.32u l=0.6u
X20 a_36_573# B1 VDD w_n86_453# pmos_6p0 w=1.83u l=0.5u
X21 a_36_573# A2 ZN w_n86_453# pmos_6p0 w=1.83u l=0.5u
X22 ZN B1 a_244_69# & Metric 1.00 nmos_6p0 w=1.32u l=0.6u
X23 ZN A2 a_36_573# w_n86_453# pmos_6p0 w=1.83u l=0.5u
X24 ZN A1 a_36_573# w_n86_453# pmos_6p0 w=1.83u l=0.5u
X25 a_244_69# B2 VSS & Metric 1.00 nmos_6p0 w=1.32u l=0.6u
X26 a_1468_69# B1 ZN & Metric 1.00 nmos_6p0 w=1.32u l=0.6u
X27 VDD B1 a_36_573# w_n86_453# pmos_6p0 w=1.83u l=0.5u
X28 a_36_573# A2 ZN w_n86_453# pmos_6p0 w=1.83u l=0.5u
X29 a_36_573# B2 VDD w_n86_453# pmos_6p0 w=1.83u l=0.5u
X30 a_36_573# A1 ZN w_n86_453# pmos_6p0 w=1.83u l=0.5u
X31 a_1924_69# A2 VSS & Metric 1.00 nmos_6p0 w=1.32u l=0.6u
.ends



******* EOF

* NGSPICE file created from gf180mcu_fd_sc_mcu9t5v0__aoi22_4.ext - technology: gf180mcuA



******* EOF

* NGSPICE file created from gf180mcu_fd_sc_mcu9t5v0__aoi211_1.ext - technology: gf180mcuA

.subckt gf180mcu_fd_sc_mcu9t5v0__aoi211_1 A1 A2 B C VDD VSS ZN
X0 a_653_573# B a_37_573# w_n86_453# pmos_6p0 w=1.83u l=0.5u
X1 ZN C VSS & Metric 1.00 nmos_6p0 w=0.79u l=0.6u
X2 ZN A2 a_37_573# w_n86_453# pmos_6p0 w=1.83u l=0.5u
X3 VSS B ZN & Metric 1.00 nmos_6p0 w=0.79u l=0.6u
X4 a_37_573# A1 ZN w_n86_453# pmos_6p0 w=1.83u l=0.5u
X5 VDD C a_653_573# w_n86_453# pmos_6p0 w=1.83u l=0.5u
X6 a_245_96# A2 VSS & Metric 1.00 nmos_6p0 w=1.185u l=0.6u
X7 ZN A1 a_245_96# & Metric 1.00 nmos_6p0 w=1.185u l=0.6u
.ends



******* EOF

* NGSPICE file created from gf180mcu_fd_sc_mcu9t5v0__aoi211_1.ext - technology: gf180mcuA



******* EOF

* NGSPICE file created from gf180mcu_fd_sc_mcu9t5v0__aoi211_2.ext - technology: gf180mcuA

.subckt gf180mcu_fd_sc_mcu9t5v0__aoi211_2 A1 A2 B C VDD VSS ZN
X0 a_636_70# A1 ZN & Metric 1.00 nmos_6p0 w=1.185u l=0.6u
X1 ZN A2 a_36_573# w_n86_453# pmos_6p0 w=1.83u l=0.5u
X2 VSS A2 a_636_70# & Metric 1.00 nmos_6p0 w=1.185u l=0.6u
X3 a_36_573# B a_1492_573# w_n86_453# pmos_6p0 w=1.83u l=0.5u
X4 VSS B ZN & Metric 1.00 nmos_6p0 w=0.79u l=0.6u
X5 a_36_573# A1 ZN w_n86_453# pmos_6p0 w=1.83u l=0.5u
X6 VSS C ZN & Metric 1.00 nmos_6p0 w=0.79u l=0.6u
X7 ZN A1 a_36_573# w_n86_453# pmos_6p0 w=1.83u l=0.5u
X8 a_244_70# A2 VSS & Metric 1.00 nmos_6p0 w=1.185u l=0.6u
X9 a_36_573# A2 ZN w_n86_453# pmos_6p0 w=1.83u l=0.5u
X10 ZN A1 a_244_70# & Metric 1.00 nmos_6p0 w=1.185u l=0.6u
X11 a_1492_573# C VDD w_n86_453# pmos_6p0 w=1.83u l=0.5u